
---------- Begin Simulation Statistics ----------
sim_seconds                                  0.006347                       # Number of seconds simulated
sim_ticks                                  6347382500                       # Number of ticks simulated
final_tick                                 6347382500                       # Number of ticks from beginning of simulation (restored from checkpoints and never reset)
sim_freq                                 1000000000000                       # Frequency of simulated ticks
host_inst_rate                                 306570                       # Simulator instruction rate (inst/s)
host_op_rate                                   306601                       # Simulator op (including micro ops) rate (op/s)
host_tick_rate                               96367362                       # Simulator tick rate (ticks/s)
host_mem_usage                                 811816                       # Number of bytes of host memory used
host_seconds                                    65.87                       # Real time elapsed on the host
sim_insts                                    20192680                       # Number of instructions simulated
sim_ops                                      20194712                       # Number of ops (including micro ops) simulated
system.voltage_domain.voltage                       1                       # Voltage in Volts
system.clk_domain.clock                          1000                       # Clock period in ticks
system.mem_ctrls.pwrStateResidencyTicks::UNDEFINED   6347382500                       # Cumulative time (in ticks) in various power states
system.mem_ctrls.bytes_read::.cpu.inst          33408                       # Number of bytes read from this memory
system.mem_ctrls.bytes_read::.cpu.data         811008                       # Number of bytes read from this memory
system.mem_ctrls.bytes_read::total             844416                       # Number of bytes read from this memory
system.mem_ctrls.bytes_inst_read::.cpu.inst        33408                       # Number of instructions bytes read from this memory
system.mem_ctrls.bytes_inst_read::total         33408                       # Number of instructions bytes read from this memory
system.mem_ctrls.num_reads::.cpu.inst             522                       # Number of read requests responded to by this memory
system.mem_ctrls.num_reads::.cpu.data           12672                       # Number of read requests responded to by this memory
system.mem_ctrls.num_reads::total               13194                       # Number of read requests responded to by this memory
system.mem_ctrls.bw_read::.cpu.inst           5263272                       # Total read bandwidth from this memory (bytes/s)
system.mem_ctrls.bw_read::.cpu.data         127770463                       # Total read bandwidth from this memory (bytes/s)
system.mem_ctrls.bw_read::total             133033735                       # Total read bandwidth from this memory (bytes/s)
system.mem_ctrls.bw_inst_read::.cpu.inst      5263272                       # Instruction read bandwidth from this memory (bytes/s)
system.mem_ctrls.bw_inst_read::total          5263272                       # Instruction read bandwidth from this memory (bytes/s)
system.mem_ctrls.bw_total::.cpu.inst          5263272                       # Total bandwidth to/from this memory (bytes/s)
system.mem_ctrls.bw_total::.cpu.data        127770463                       # Total bandwidth to/from this memory (bytes/s)
system.mem_ctrls.bw_total::total            133033735                       # Total bandwidth to/from this memory (bytes/s)
system.mem_ctrls.avgPriority_.cpu.inst::samples       522.00                       # Average QoS priority value for accepted requests
system.mem_ctrls.avgPriority_.cpu.data::samples     12672.00                       # Average QoS priority value for accepted requests
system.mem_ctrls.priorityMinLatency      0.000000018750                       # per QoS priority minimum request to response latency (s)
system.mem_ctrls.priorityMaxLatency      0.000001099750                       # per QoS priority maximum request to response latency (s)
system.mem_ctrls.numReadWriteTurnArounds            0                       # Number of turnarounds from READ to WRITE
system.mem_ctrls.numWriteReadTurnArounds            0                       # Number of turnarounds from WRITE to READ
system.mem_ctrls.numStayReadState               26638                       # Number of times bus staying in READ state
system.mem_ctrls.numStayWriteState                  0                       # Number of times bus staying in WRITE state
system.mem_ctrls.readReqs                       13194                       # Number of read requests accepted
system.mem_ctrls.writeReqs                          0                       # Number of write requests accepted
system.mem_ctrls.readBursts                     13194                       # Number of DRAM read bursts, including those serviced by the write queue
system.mem_ctrls.writeBursts                        0                       # Number of DRAM write bursts, including those merged in the write queue
system.mem_ctrls.bytesReadDRAM                 844416                       # Total number of bytes read from DRAM
system.mem_ctrls.bytesReadWrQ                       0                       # Total number of bytes read from write queue
system.mem_ctrls.bytesWritten                       0                       # Total number of bytes written to DRAM
system.mem_ctrls.bytesReadSys                  844416                       # Total read bytes from the system interface side
system.mem_ctrls.bytesWrittenSys                    0                       # Total written bytes from the system interface side
system.mem_ctrls.servicedByWrQ                      0                       # Number of DRAM read bursts serviced by the write queue
system.mem_ctrls.mergedWrBursts                     0                       # Number of DRAM write bursts merged with an existing one
system.mem_ctrls.neitherReadNorWriteReqs            0                       # Number of requests that are neither read nor write
system.mem_ctrls.perBankRdBursts::0               903                       # Per bank write bursts
system.mem_ctrls.perBankRdBursts::1               776                       # Per bank write bursts
system.mem_ctrls.perBankRdBursts::2               770                       # Per bank write bursts
system.mem_ctrls.perBankRdBursts::3               833                       # Per bank write bursts
system.mem_ctrls.perBankRdBursts::4               770                       # Per bank write bursts
system.mem_ctrls.perBankRdBursts::5               847                       # Per bank write bursts
system.mem_ctrls.perBankRdBursts::6               864                       # Per bank write bursts
system.mem_ctrls.perBankRdBursts::7               830                       # Per bank write bursts
system.mem_ctrls.perBankRdBursts::8               819                       # Per bank write bursts
system.mem_ctrls.perBankRdBursts::9               783                       # Per bank write bursts
system.mem_ctrls.perBankRdBursts::10              792                       # Per bank write bursts
system.mem_ctrls.perBankRdBursts::11              783                       # Per bank write bursts
system.mem_ctrls.perBankRdBursts::12              846                       # Per bank write bursts
system.mem_ctrls.perBankRdBursts::13              884                       # Per bank write bursts
system.mem_ctrls.perBankRdBursts::14              840                       # Per bank write bursts
system.mem_ctrls.perBankRdBursts::15              854                       # Per bank write bursts
system.mem_ctrls.perBankWrBursts::0                 0                       # Per bank write bursts
system.mem_ctrls.perBankWrBursts::1                 0                       # Per bank write bursts
system.mem_ctrls.perBankWrBursts::2                 0                       # Per bank write bursts
system.mem_ctrls.perBankWrBursts::3                 0                       # Per bank write bursts
system.mem_ctrls.perBankWrBursts::4                 0                       # Per bank write bursts
system.mem_ctrls.perBankWrBursts::5                 0                       # Per bank write bursts
system.mem_ctrls.perBankWrBursts::6                 0                       # Per bank write bursts
system.mem_ctrls.perBankWrBursts::7                 0                       # Per bank write bursts
system.mem_ctrls.perBankWrBursts::8                 0                       # Per bank write bursts
system.mem_ctrls.perBankWrBursts::9                 0                       # Per bank write bursts
system.mem_ctrls.perBankWrBursts::10                0                       # Per bank write bursts
system.mem_ctrls.perBankWrBursts::11                0                       # Per bank write bursts
system.mem_ctrls.perBankWrBursts::12                0                       # Per bank write bursts
system.mem_ctrls.perBankWrBursts::13                0                       # Per bank write bursts
system.mem_ctrls.perBankWrBursts::14                0                       # Per bank write bursts
system.mem_ctrls.perBankWrBursts::15                0                       # Per bank write bursts
system.mem_ctrls.numRdRetry                         0                       # Number of times read queue was full causing retry
system.mem_ctrls.numWrRetry                         0                       # Number of times write queue was full causing retry
system.mem_ctrls.totGap                    6347242500                       # Total gap between requests
system.mem_ctrls.readPktSize::0                     0                       # Read request sizes (log2)
system.mem_ctrls.readPktSize::1                     0                       # Read request sizes (log2)
system.mem_ctrls.readPktSize::2                     0                       # Read request sizes (log2)
system.mem_ctrls.readPktSize::3                     0                       # Read request sizes (log2)
system.mem_ctrls.readPktSize::4                     0                       # Read request sizes (log2)
system.mem_ctrls.readPktSize::5                     0                       # Read request sizes (log2)
system.mem_ctrls.readPktSize::6                 13194                       # Read request sizes (log2)
system.mem_ctrls.writePktSize::0                    0                       # Write request sizes (log2)
system.mem_ctrls.writePktSize::1                    0                       # Write request sizes (log2)
system.mem_ctrls.writePktSize::2                    0                       # Write request sizes (log2)
system.mem_ctrls.writePktSize::3                    0                       # Write request sizes (log2)
system.mem_ctrls.writePktSize::4                    0                       # Write request sizes (log2)
system.mem_ctrls.writePktSize::5                    0                       # Write request sizes (log2)
system.mem_ctrls.writePktSize::6                    0                       # Write request sizes (log2)
system.mem_ctrls.rdQLenPdf::0                   11686                       # What read queue length does an incoming req see
system.mem_ctrls.rdQLenPdf::1                    1421                       # What read queue length does an incoming req see
system.mem_ctrls.rdQLenPdf::2                      67                       # What read queue length does an incoming req see
system.mem_ctrls.rdQLenPdf::3                      15                       # What read queue length does an incoming req see
system.mem_ctrls.rdQLenPdf::4                       5                       # What read queue length does an incoming req see
system.mem_ctrls.rdQLenPdf::5                       0                       # What read queue length does an incoming req see
system.mem_ctrls.rdQLenPdf::6                       0                       # What read queue length does an incoming req see
system.mem_ctrls.rdQLenPdf::7                       0                       # What read queue length does an incoming req see
system.mem_ctrls.rdQLenPdf::8                       0                       # What read queue length does an incoming req see
system.mem_ctrls.rdQLenPdf::9                       0                       # What read queue length does an incoming req see
system.mem_ctrls.rdQLenPdf::10                      0                       # What read queue length does an incoming req see
system.mem_ctrls.rdQLenPdf::11                      0                       # What read queue length does an incoming req see
system.mem_ctrls.rdQLenPdf::12                      0                       # What read queue length does an incoming req see
system.mem_ctrls.rdQLenPdf::13                      0                       # What read queue length does an incoming req see
system.mem_ctrls.rdQLenPdf::14                      0                       # What read queue length does an incoming req see
system.mem_ctrls.rdQLenPdf::15                      0                       # What read queue length does an incoming req see
system.mem_ctrls.rdQLenPdf::16                      0                       # What read queue length does an incoming req see
system.mem_ctrls.rdQLenPdf::17                      0                       # What read queue length does an incoming req see
system.mem_ctrls.rdQLenPdf::18                      0                       # What read queue length does an incoming req see
system.mem_ctrls.rdQLenPdf::19                      0                       # What read queue length does an incoming req see
system.mem_ctrls.rdQLenPdf::20                      0                       # What read queue length does an incoming req see
system.mem_ctrls.rdQLenPdf::21                      0                       # What read queue length does an incoming req see
system.mem_ctrls.rdQLenPdf::22                      0                       # What read queue length does an incoming req see
system.mem_ctrls.rdQLenPdf::23                      0                       # What read queue length does an incoming req see
system.mem_ctrls.rdQLenPdf::24                      0                       # What read queue length does an incoming req see
system.mem_ctrls.rdQLenPdf::25                      0                       # What read queue length does an incoming req see
system.mem_ctrls.rdQLenPdf::26                      0                       # What read queue length does an incoming req see
system.mem_ctrls.rdQLenPdf::27                      0                       # What read queue length does an incoming req see
system.mem_ctrls.rdQLenPdf::28                      0                       # What read queue length does an incoming req see
system.mem_ctrls.rdQLenPdf::29                      0                       # What read queue length does an incoming req see
system.mem_ctrls.rdQLenPdf::30                      0                       # What read queue length does an incoming req see
system.mem_ctrls.rdQLenPdf::31                      0                       # What read queue length does an incoming req see
system.mem_ctrls.wrQLenPdf::0                       0                       # What write queue length does an incoming req see
system.mem_ctrls.wrQLenPdf::1                       0                       # What write queue length does an incoming req see
system.mem_ctrls.wrQLenPdf::2                       0                       # What write queue length does an incoming req see
system.mem_ctrls.wrQLenPdf::3                       0                       # What write queue length does an incoming req see
system.mem_ctrls.wrQLenPdf::4                       0                       # What write queue length does an incoming req see
system.mem_ctrls.wrQLenPdf::5                       0                       # What write queue length does an incoming req see
system.mem_ctrls.wrQLenPdf::6                       0                       # What write queue length does an incoming req see
system.mem_ctrls.wrQLenPdf::7                       0                       # What write queue length does an incoming req see
system.mem_ctrls.wrQLenPdf::8                       0                       # What write queue length does an incoming req see
system.mem_ctrls.wrQLenPdf::9                       0                       # What write queue length does an incoming req see
system.mem_ctrls.wrQLenPdf::10                      0                       # What write queue length does an incoming req see
system.mem_ctrls.wrQLenPdf::11                      0                       # What write queue length does an incoming req see
system.mem_ctrls.wrQLenPdf::12                      0                       # What write queue length does an incoming req see
system.mem_ctrls.wrQLenPdf::13                      0                       # What write queue length does an incoming req see
system.mem_ctrls.wrQLenPdf::14                      0                       # What write queue length does an incoming req see
system.mem_ctrls.wrQLenPdf::15                      0                       # What write queue length does an incoming req see
system.mem_ctrls.wrQLenPdf::16                      0                       # What write queue length does an incoming req see
system.mem_ctrls.wrQLenPdf::17                      0                       # What write queue length does an incoming req see
system.mem_ctrls.wrQLenPdf::18                      0                       # What write queue length does an incoming req see
system.mem_ctrls.wrQLenPdf::19                      0                       # What write queue length does an incoming req see
system.mem_ctrls.wrQLenPdf::20                      0                       # What write queue length does an incoming req see
system.mem_ctrls.wrQLenPdf::21                      0                       # What write queue length does an incoming req see
system.mem_ctrls.wrQLenPdf::22                      0                       # What write queue length does an incoming req see
system.mem_ctrls.wrQLenPdf::23                      0                       # What write queue length does an incoming req see
system.mem_ctrls.wrQLenPdf::24                      0                       # What write queue length does an incoming req see
system.mem_ctrls.wrQLenPdf::25                      0                       # What write queue length does an incoming req see
system.mem_ctrls.wrQLenPdf::26                      0                       # What write queue length does an incoming req see
system.mem_ctrls.wrQLenPdf::27                      0                       # What write queue length does an incoming req see
system.mem_ctrls.wrQLenPdf::28                      0                       # What write queue length does an incoming req see
system.mem_ctrls.wrQLenPdf::29                      0                       # What write queue length does an incoming req see
system.mem_ctrls.wrQLenPdf::30                      0                       # What write queue length does an incoming req see
system.mem_ctrls.wrQLenPdf::31                      0                       # What write queue length does an incoming req see
system.mem_ctrls.wrQLenPdf::32                      0                       # What write queue length does an incoming req see
system.mem_ctrls.wrQLenPdf::33                      0                       # What write queue length does an incoming req see
system.mem_ctrls.wrQLenPdf::34                      0                       # What write queue length does an incoming req see
system.mem_ctrls.wrQLenPdf::35                      0                       # What write queue length does an incoming req see
system.mem_ctrls.wrQLenPdf::36                      0                       # What write queue length does an incoming req see
system.mem_ctrls.wrQLenPdf::37                      0                       # What write queue length does an incoming req see
system.mem_ctrls.wrQLenPdf::38                      0                       # What write queue length does an incoming req see
system.mem_ctrls.wrQLenPdf::39                      0                       # What write queue length does an incoming req see
system.mem_ctrls.wrQLenPdf::40                      0                       # What write queue length does an incoming req see
system.mem_ctrls.wrQLenPdf::41                      0                       # What write queue length does an incoming req see
system.mem_ctrls.wrQLenPdf::42                      0                       # What write queue length does an incoming req see
system.mem_ctrls.wrQLenPdf::43                      0                       # What write queue length does an incoming req see
system.mem_ctrls.wrQLenPdf::44                      0                       # What write queue length does an incoming req see
system.mem_ctrls.wrQLenPdf::45                      0                       # What write queue length does an incoming req see
system.mem_ctrls.wrQLenPdf::46                      0                       # What write queue length does an incoming req see
system.mem_ctrls.wrQLenPdf::47                      0                       # What write queue length does an incoming req see
system.mem_ctrls.wrQLenPdf::48                      0                       # What write queue length does an incoming req see
system.mem_ctrls.wrQLenPdf::49                      0                       # What write queue length does an incoming req see
system.mem_ctrls.wrQLenPdf::50                      0                       # What write queue length does an incoming req see
system.mem_ctrls.wrQLenPdf::51                      0                       # What write queue length does an incoming req see
system.mem_ctrls.wrQLenPdf::52                      0                       # What write queue length does an incoming req see
system.mem_ctrls.wrQLenPdf::53                      0                       # What write queue length does an incoming req see
system.mem_ctrls.wrQLenPdf::54                      0                       # What write queue length does an incoming req see
system.mem_ctrls.wrQLenPdf::55                      0                       # What write queue length does an incoming req see
system.mem_ctrls.wrQLenPdf::56                      0                       # What write queue length does an incoming req see
system.mem_ctrls.wrQLenPdf::57                      0                       # What write queue length does an incoming req see
system.mem_ctrls.wrQLenPdf::58                      0                       # What write queue length does an incoming req see
system.mem_ctrls.wrQLenPdf::59                      0                       # What write queue length does an incoming req see
system.mem_ctrls.wrQLenPdf::60                      0                       # What write queue length does an incoming req see
system.mem_ctrls.wrQLenPdf::61                      0                       # What write queue length does an incoming req see
system.mem_ctrls.wrQLenPdf::62                      0                       # What write queue length does an incoming req see
system.mem_ctrls.wrQLenPdf::63                      0                       # What write queue length does an incoming req see
system.mem_ctrls.bytesPerActivate::samples         2992                       # Bytes accessed per row activation
system.mem_ctrls.bytesPerActivate::mean    281.796791                       # Bytes accessed per row activation
system.mem_ctrls.bytesPerActivate::gmean   132.094496                       # Bytes accessed per row activation
system.mem_ctrls.bytesPerActivate::stdev   362.688488                       # Bytes accessed per row activation
system.mem_ctrls.bytesPerActivate::0-127         2092     69.92%     69.92% # Bytes accessed per row activation
system.mem_ctrls.bytesPerActivate::128-255           59      1.97%     71.89% # Bytes accessed per row activation
system.mem_ctrls.bytesPerActivate::256-383           38      1.27%     73.16% # Bytes accessed per row activation
system.mem_ctrls.bytesPerActivate::384-511           41      1.37%     74.53% # Bytes accessed per row activation
system.mem_ctrls.bytesPerActivate::512-639           34      1.14%     75.67% # Bytes accessed per row activation
system.mem_ctrls.bytesPerActivate::640-767           37      1.24%     76.91% # Bytes accessed per row activation
system.mem_ctrls.bytesPerActivate::768-895          303     10.13%     87.03% # Bytes accessed per row activation
system.mem_ctrls.bytesPerActivate::896-1023           15      0.50%     87.53% # Bytes accessed per row activation
system.mem_ctrls.bytesPerActivate::1024-1151          373     12.47%    100.00% # Bytes accessed per row activation
system.mem_ctrls.bytesPerActivate::total         2992                       # Bytes accessed per row activation
system.mem_ctrls.masterReadBytes::.cpu.inst        33408                       # Per-master bytes read from memory
system.mem_ctrls.masterReadBytes::.cpu.data       811008                       # Per-master bytes read from memory
system.mem_ctrls.masterReadRate::.cpu.inst 5263271.907750951126                       # Per-master bytes read from memory rate (Bytes/sec)
system.mem_ctrls.masterReadRate::.cpu.data 127770462.864023074508                       # Per-master bytes read from memory rate (Bytes/sec)
system.mem_ctrls.masterReadAccesses::.cpu.inst          522                       # Per-master read serviced memory accesses
system.mem_ctrls.masterReadAccesses::.cpu.data        12672                       # Per-master read serviced memory accesses
system.mem_ctrls.masterReadTotalLat::.cpu.inst     18705250                       # Per-master read total memory access latency
system.mem_ctrls.masterReadTotalLat::.cpu.data    502344500                       # Per-master read total memory access latency
system.mem_ctrls.masterReadAvgLat::.cpu.inst     35833.81                       # Per-master read average memory access latency
system.mem_ctrls.masterReadAvgLat::.cpu.data     39642.08                       # Per-master read average memory access latency
system.mem_ctrls.totQLat                    273662250                       # Total ticks spent queuing
system.mem_ctrls.totMemAccLat               521049750                       # Total ticks spent from burst creation until serviced by the DRAM
system.mem_ctrls.totBusLat                   65970000                       # Total ticks spent in databus transfers
system.mem_ctrls.avgQLat                     20741.42                       # Average queueing delay per DRAM burst
system.mem_ctrls.avgBusLat                    5000.00                       # Average bus latency per DRAM burst
system.mem_ctrls.avgMemAccLat                39491.42                       # Average memory access latency per DRAM burst
system.mem_ctrls.avgRdBW                       133.03                       # Average DRAM read bandwidth in MiByte/s
system.mem_ctrls.avgWrBW                         0.00                       # Average achieved write bandwidth in MiByte/s
system.mem_ctrls.avgRdBWSys                    133.03                       # Average system read bandwidth in MiByte/s
system.mem_ctrls.avgWrBWSys                      0.00                       # Average system write bandwidth in MiByte/s
system.mem_ctrls.peakBW                      12800.00                       # Theoretical peak bandwidth in MiByte/s
system.mem_ctrls.busUtil                         1.04                       # Data bus utilization in percentage
system.mem_ctrls.busUtilRead                     1.04                       # Data bus utilization in percentage for reads
system.mem_ctrls.busUtilWrite                    0.00                       # Data bus utilization in percentage for writes
system.mem_ctrls.avgRdQLen                       1.32                       # Average read queue length when enqueuing
system.mem_ctrls.avgWrQLen                       0.00                       # Average write queue length when enqueuing
system.mem_ctrls.readRowHits                    10196                       # Number of row buffer hits during reads
system.mem_ctrls.writeRowHits                       0                       # Number of row buffer hits during writes
system.mem_ctrls.readRowHitRate                 77.28                       # Row buffer hit rate for reads
system.mem_ctrls.writeRowHitRate                  nan                       # Row buffer hit rate for writes
system.mem_ctrls.avgGap                     481070.37                       # Average gap between requests
system.mem_ctrls.pageHitRate                    77.28                       # Row buffer hit rate, read and write combined
system.mem_ctrls_0.actEnergy                 10624320                       # Energy for activate commands per rank (pJ)
system.mem_ctrls_0.preEnergy                  5631780                       # Energy for precharge commands per rank (pJ)
system.mem_ctrls_0.readEnergy                47074020                       # Energy for read commands per rank (pJ)
system.mem_ctrls_0.writeEnergy                      0                       # Energy for write commands per rank (pJ)
system.mem_ctrls_0.refreshEnergy         84205680.000000                       # Energy for refresh commands per rank (pJ)
system.mem_ctrls_0.actBackEnergy            100410630                       # Energy for active background per rank (pJ)
system.mem_ctrls_0.preBackEnergy              5418240                       # Energy for precharge background per rank (pJ)
system.mem_ctrls_0.actPowerDownEnergy       351097200                       # Energy for active power-down per rank (pJ)
system.mem_ctrls_0.prePowerDownEnergy        25643520                       # Energy for precharge power-down per rank (pJ)
system.mem_ctrls_0.selfRefreshEnergy       1269635940                       # Energy for self refresh per rank (pJ)
system.mem_ctrls_0.totalEnergy             1899741330                       # Total energy per rank (pJ)
system.mem_ctrls_0.averagePower            299.295234                       # Core power per rank (mW)
system.mem_ctrls_0.totalIdleTime           6112910000                       # Total Idle time Per DRAM Rank
system.mem_ctrls_0.memoryStateTime::IDLE      3005500                       # Time in different power states
system.mem_ctrls_0.memoryStateTime::REF      35620000                       # Time in different power states
system.mem_ctrls_0.memoryStateTime::SREF   5276342750                       # Time in different power states
system.mem_ctrls_0.memoryStateTime::PRE_PDN     66781500                       # Time in different power states
system.mem_ctrls_0.memoryStateTime::ACT     195743250                       # Time in different power states
system.mem_ctrls_0.memoryStateTime::ACT_PDN    769889500                       # Time in different power states
system.mem_ctrls_1.actEnergy                 10781400                       # Energy for activate commands per rank (pJ)
system.mem_ctrls_1.preEnergy                  5722860                       # Energy for precharge commands per rank (pJ)
system.mem_ctrls_1.readEnergy                47131140                       # Energy for read commands per rank (pJ)
system.mem_ctrls_1.writeEnergy                      0                       # Energy for write commands per rank (pJ)
system.mem_ctrls_1.refreshEnergy         83591040.000000                       # Energy for refresh commands per rank (pJ)
system.mem_ctrls_1.actBackEnergy            100928190                       # Energy for active background per rank (pJ)
system.mem_ctrls_1.preBackEnergy              5274240                       # Energy for precharge background per rank (pJ)
system.mem_ctrls_1.actPowerDownEnergy       353870250                       # Energy for active power-down per rank (pJ)
system.mem_ctrls_1.prePowerDownEnergy        19468320                       # Energy for precharge power-down per rank (pJ)
system.mem_ctrls_1.selfRefreshEnergy       1270749060                       # Energy for self refresh per rank (pJ)
system.mem_ctrls_1.totalEnergy             1897516500                       # Total energy per rank (pJ)
system.mem_ctrls_1.averagePower            298.944722                       # Core power per rank (mW)
system.mem_ctrls_1.totalIdleTime           6112275250                       # Total Idle time Per DRAM Rank
system.mem_ctrls_1.memoryStateTime::IDLE      2558000                       # Time in different power states
system.mem_ctrls_1.memoryStateTime::REF      35360000                       # Time in different power states
system.mem_ctrls_1.memoryStateTime::SREF   5285584500                       # Time in different power states
system.mem_ctrls_1.memoryStateTime::PRE_PDN     50702000                       # Time in different power states
system.mem_ctrls_1.memoryStateTime::ACT     197066000                       # Time in different power states
system.mem_ctrls_1.memoryStateTime::ACT_PDN    776112000                       # Time in different power states
system.pwrStateResidencyTicks::UNDEFINED   6347382500                       # Cumulative time (in ticks) in various power states
system.cpu.branchPred.lookups                 3361951                       # Number of BP lookups
system.cpu.branchPred.condPredicted           2260066                       # Number of conditional branches predicted
system.cpu.branchPred.condIncorrect               871                       # Number of conditional branches incorrect
system.cpu.branchPred.BTBLookups              1647787                       # Number of BTB lookups
system.cpu.branchPred.BTBHits                 1445286                       # Number of BTB hits
system.cpu.branchPred.BTBCorrect                    0                       # Number of correct BTB predictions (this stat may not work properly.
system.cpu.branchPred.BTBHitPct             87.710730                       # BTB Hit Percentage
system.cpu.branchPred.usedRAS                  500704                       # Number of times the RAS was used to get a target.
system.cpu.branchPred.RASInCorrect                 90                       # Number of incorrect RAS predictions.
system.cpu.branchPred.indirectLookups             239                       # Number of indirect predictor lookups.
system.cpu.branchPred.indirectHits                 38                       # Number of indirect target hits.
system.cpu.branchPred.indirectMisses              201                       # Number of indirect misses.
system.cpu.branchPredindirectMispredicted           94                       # Number of mispredicted indirect branches.
system.cpu_voltage_domain.voltage                   1                       # Voltage in Volts
system.cpu_clk_domain.clock                       500                       # Clock period in ticks
system.cpu.dstage2_mmu.stage2_tlb.walker.pwrStateResidencyTicks::UNDEFINED   6347382500                       # Cumulative time (in ticks) in various power states
system.cpu.dstage2_mmu.stage2_tlb.walker.walks            0                       # Table walker walks requested
system.cpu.dstage2_mmu.stage2_tlb.walker.walkRequestOrigin_Requested::Data            0                       # Table walker requests started/completed, data/inst
system.cpu.dstage2_mmu.stage2_tlb.walker.walkRequestOrigin_Requested::Inst            0                       # Table walker requests started/completed, data/inst
system.cpu.dstage2_mmu.stage2_tlb.walker.walkRequestOrigin_Requested::total            0                       # Table walker requests started/completed, data/inst
system.cpu.dstage2_mmu.stage2_tlb.walker.walkRequestOrigin_Completed::Data            0                       # Table walker requests started/completed, data/inst
system.cpu.dstage2_mmu.stage2_tlb.walker.walkRequestOrigin_Completed::Inst            0                       # Table walker requests started/completed, data/inst
system.cpu.dstage2_mmu.stage2_tlb.walker.walkRequestOrigin_Completed::total            0                       # Table walker requests started/completed, data/inst
system.cpu.dstage2_mmu.stage2_tlb.walker.walkRequestOrigin::total            0                       # Table walker requests started/completed, data/inst
system.cpu.dstage2_mmu.stage2_tlb.inst_hits            0                       # ITB inst hits
system.cpu.dstage2_mmu.stage2_tlb.inst_misses            0                       # ITB inst misses
system.cpu.dstage2_mmu.stage2_tlb.read_hits            0                       # DTB read hits
system.cpu.dstage2_mmu.stage2_tlb.read_misses            0                       # DTB read misses
system.cpu.dstage2_mmu.stage2_tlb.write_hits            0                       # DTB write hits
system.cpu.dstage2_mmu.stage2_tlb.write_misses            0                       # DTB write misses
system.cpu.dstage2_mmu.stage2_tlb.flush_tlb            0                       # Number of times complete TLB was flushed
system.cpu.dstage2_mmu.stage2_tlb.flush_tlb_mva            0                       # Number of times TLB was flushed by MVA
system.cpu.dstage2_mmu.stage2_tlb.flush_tlb_mva_asid            0                       # Number of times TLB was flushed by MVA & ASID
system.cpu.dstage2_mmu.stage2_tlb.flush_tlb_asid            0                       # Number of times TLB was flushed by ASID
system.cpu.dstage2_mmu.stage2_tlb.flush_entries            0                       # Number of entries that have been flushed from TLB
system.cpu.dstage2_mmu.stage2_tlb.align_faults            0                       # Number of TLB faults due to alignment restrictions
system.cpu.dstage2_mmu.stage2_tlb.prefetch_faults            0                       # Number of TLB faults due to prefetch
system.cpu.dstage2_mmu.stage2_tlb.domain_faults            0                       # Number of TLB faults due to domain restrictions
system.cpu.dstage2_mmu.stage2_tlb.perms_faults            0                       # Number of TLB faults due to permissions restrictions
system.cpu.dstage2_mmu.stage2_tlb.read_accesses            0                       # DTB read accesses
system.cpu.dstage2_mmu.stage2_tlb.write_accesses            0                       # DTB write accesses
system.cpu.dstage2_mmu.stage2_tlb.inst_accesses            0                       # ITB inst accesses
system.cpu.dstage2_mmu.stage2_tlb.hits              0                       # DTB hits
system.cpu.dstage2_mmu.stage2_tlb.misses            0                       # DTB misses
system.cpu.dstage2_mmu.stage2_tlb.accesses            0                       # DTB accesses
system.cpu.dtb.walker.pwrStateResidencyTicks::UNDEFINED   6347382500                       # Cumulative time (in ticks) in various power states
system.cpu.dtb.walker.walks                         0                       # Table walker walks requested
system.cpu.dtb.walker.walkRequestOrigin_Requested::Data            0                       # Table walker requests started/completed, data/inst
system.cpu.dtb.walker.walkRequestOrigin_Requested::Inst            0                       # Table walker requests started/completed, data/inst
system.cpu.dtb.walker.walkRequestOrigin_Requested::total            0                       # Table walker requests started/completed, data/inst
system.cpu.dtb.walker.walkRequestOrigin_Completed::Data            0                       # Table walker requests started/completed, data/inst
system.cpu.dtb.walker.walkRequestOrigin_Completed::Inst            0                       # Table walker requests started/completed, data/inst
system.cpu.dtb.walker.walkRequestOrigin_Completed::total            0                       # Table walker requests started/completed, data/inst
system.cpu.dtb.walker.walkRequestOrigin::total            0                       # Table walker requests started/completed, data/inst
system.cpu.dtb.inst_hits                            0                       # ITB inst hits
system.cpu.dtb.inst_misses                          0                       # ITB inst misses
system.cpu.dtb.read_hits                            0                       # DTB read hits
system.cpu.dtb.read_misses                          0                       # DTB read misses
system.cpu.dtb.write_hits                           0                       # DTB write hits
system.cpu.dtb.write_misses                         0                       # DTB write misses
system.cpu.dtb.flush_tlb                            0                       # Number of times complete TLB was flushed
system.cpu.dtb.flush_tlb_mva                        0                       # Number of times TLB was flushed by MVA
system.cpu.dtb.flush_tlb_mva_asid                   0                       # Number of times TLB was flushed by MVA & ASID
system.cpu.dtb.flush_tlb_asid                       0                       # Number of times TLB was flushed by ASID
system.cpu.dtb.flush_entries                        0                       # Number of entries that have been flushed from TLB
system.cpu.dtb.align_faults                         0                       # Number of TLB faults due to alignment restrictions
system.cpu.dtb.prefetch_faults                      0                       # Number of TLB faults due to prefetch
system.cpu.dtb.domain_faults                        0                       # Number of TLB faults due to domain restrictions
system.cpu.dtb.perms_faults                         0                       # Number of TLB faults due to permissions restrictions
system.cpu.dtb.read_accesses                        0                       # DTB read accesses
system.cpu.dtb.write_accesses                       0                       # DTB write accesses
system.cpu.dtb.inst_accesses                        0                       # ITB inst accesses
system.cpu.dtb.hits                                 0                       # DTB hits
system.cpu.dtb.misses                               0                       # DTB misses
system.cpu.dtb.accesses                             0                       # DTB accesses
system.cpu.istage2_mmu.stage2_tlb.walker.pwrStateResidencyTicks::UNDEFINED   6347382500                       # Cumulative time (in ticks) in various power states
system.cpu.istage2_mmu.stage2_tlb.walker.walks            0                       # Table walker walks requested
system.cpu.istage2_mmu.stage2_tlb.walker.walkRequestOrigin_Requested::Data            0                       # Table walker requests started/completed, data/inst
system.cpu.istage2_mmu.stage2_tlb.walker.walkRequestOrigin_Requested::Inst            0                       # Table walker requests started/completed, data/inst
system.cpu.istage2_mmu.stage2_tlb.walker.walkRequestOrigin_Requested::total            0                       # Table walker requests started/completed, data/inst
system.cpu.istage2_mmu.stage2_tlb.walker.walkRequestOrigin_Completed::Data            0                       # Table walker requests started/completed, data/inst
system.cpu.istage2_mmu.stage2_tlb.walker.walkRequestOrigin_Completed::Inst            0                       # Table walker requests started/completed, data/inst
system.cpu.istage2_mmu.stage2_tlb.walker.walkRequestOrigin_Completed::total            0                       # Table walker requests started/completed, data/inst
system.cpu.istage2_mmu.stage2_tlb.walker.walkRequestOrigin::total            0                       # Table walker requests started/completed, data/inst
system.cpu.istage2_mmu.stage2_tlb.inst_hits            0                       # ITB inst hits
system.cpu.istage2_mmu.stage2_tlb.inst_misses            0                       # ITB inst misses
system.cpu.istage2_mmu.stage2_tlb.read_hits            0                       # DTB read hits
system.cpu.istage2_mmu.stage2_tlb.read_misses            0                       # DTB read misses
system.cpu.istage2_mmu.stage2_tlb.write_hits            0                       # DTB write hits
system.cpu.istage2_mmu.stage2_tlb.write_misses            0                       # DTB write misses
system.cpu.istage2_mmu.stage2_tlb.flush_tlb            0                       # Number of times complete TLB was flushed
system.cpu.istage2_mmu.stage2_tlb.flush_tlb_mva            0                       # Number of times TLB was flushed by MVA
system.cpu.istage2_mmu.stage2_tlb.flush_tlb_mva_asid            0                       # Number of times TLB was flushed by MVA & ASID
system.cpu.istage2_mmu.stage2_tlb.flush_tlb_asid            0                       # Number of times TLB was flushed by ASID
system.cpu.istage2_mmu.stage2_tlb.flush_entries            0                       # Number of entries that have been flushed from TLB
system.cpu.istage2_mmu.stage2_tlb.align_faults            0                       # Number of TLB faults due to alignment restrictions
system.cpu.istage2_mmu.stage2_tlb.prefetch_faults            0                       # Number of TLB faults due to prefetch
system.cpu.istage2_mmu.stage2_tlb.domain_faults            0                       # Number of TLB faults due to domain restrictions
system.cpu.istage2_mmu.stage2_tlb.perms_faults            0                       # Number of TLB faults due to permissions restrictions
system.cpu.istage2_mmu.stage2_tlb.read_accesses            0                       # DTB read accesses
system.cpu.istage2_mmu.stage2_tlb.write_accesses            0                       # DTB write accesses
system.cpu.istage2_mmu.stage2_tlb.inst_accesses            0                       # ITB inst accesses
system.cpu.istage2_mmu.stage2_tlb.hits              0                       # DTB hits
system.cpu.istage2_mmu.stage2_tlb.misses            0                       # DTB misses
system.cpu.istage2_mmu.stage2_tlb.accesses            0                       # DTB accesses
system.cpu.itb.walker.pwrStateResidencyTicks::UNDEFINED   6347382500                       # Cumulative time (in ticks) in various power states
system.cpu.itb.walker.walks                         0                       # Table walker walks requested
system.cpu.itb.walker.walkRequestOrigin_Requested::Data            0                       # Table walker requests started/completed, data/inst
system.cpu.itb.walker.walkRequestOrigin_Requested::Inst            0                       # Table walker requests started/completed, data/inst
system.cpu.itb.walker.walkRequestOrigin_Requested::total            0                       # Table walker requests started/completed, data/inst
system.cpu.itb.walker.walkRequestOrigin_Completed::Data            0                       # Table walker requests started/completed, data/inst
system.cpu.itb.walker.walkRequestOrigin_Completed::Inst            0                       # Table walker requests started/completed, data/inst
system.cpu.itb.walker.walkRequestOrigin_Completed::total            0                       # Table walker requests started/completed, data/inst
system.cpu.itb.walker.walkRequestOrigin::total            0                       # Table walker requests started/completed, data/inst
system.cpu.itb.inst_hits                            0                       # ITB inst hits
system.cpu.itb.inst_misses                          0                       # ITB inst misses
system.cpu.itb.read_hits                            0                       # DTB read hits
system.cpu.itb.read_misses                          0                       # DTB read misses
system.cpu.itb.write_hits                           0                       # DTB write hits
system.cpu.itb.write_misses                         0                       # DTB write misses
system.cpu.itb.flush_tlb                            0                       # Number of times complete TLB was flushed
system.cpu.itb.flush_tlb_mva                        0                       # Number of times TLB was flushed by MVA
system.cpu.itb.flush_tlb_mva_asid                   0                       # Number of times TLB was flushed by MVA & ASID
system.cpu.itb.flush_tlb_asid                       0                       # Number of times TLB was flushed by ASID
system.cpu.itb.flush_entries                        0                       # Number of entries that have been flushed from TLB
system.cpu.itb.align_faults                         0                       # Number of TLB faults due to alignment restrictions
system.cpu.itb.prefetch_faults                      0                       # Number of TLB faults due to prefetch
system.cpu.itb.domain_faults                        0                       # Number of TLB faults due to domain restrictions
system.cpu.itb.perms_faults                         0                       # Number of TLB faults due to permissions restrictions
system.cpu.itb.read_accesses                        0                       # DTB read accesses
system.cpu.itb.write_accesses                       0                       # DTB write accesses
system.cpu.itb.inst_accesses                        0                       # ITB inst accesses
system.cpu.itb.hits                                 0                       # DTB hits
system.cpu.itb.misses                               0                       # DTB misses
system.cpu.itb.accesses                             0                       # DTB accesses
system.cpu.workload.numSyscalls                    11                       # Number of system calls
system.cpu.pwrStateResidencyTicks::ON      6347382500                       # Cumulative time (in ticks) in various power states
system.cpu.numCycles                         12694766                       # number of cpu cycles simulated
system.cpu.numWorkItemsStarted                      0                       # number of work items this cpu started
system.cpu.numWorkItemsCompleted                    0                       # number of work items this cpu completed
system.cpu.fetch.icacheStallCycles            3015727                       # Number of cycles fetch is stalled on an Icache miss
system.cpu.fetch.Insts                       20211287                       # Number of instructions fetch has processed
system.cpu.fetch.Branches                     3361951                       # Number of branches that fetch encountered
system.cpu.fetch.predictedBranches            1946028                       # Number of branches that fetch has predicted taken
system.cpu.fetch.Cycles                       9627281                       # Number of cycles fetch has run and was not squashing or blocked
system.cpu.fetch.SquashCycles                    1832                       # Number of cycles fetch has spent squashing
system.cpu.fetch.TlbCycles                          6                       # Number of cycles fetch has spent waiting for tlb
system.cpu.fetch.MiscStallCycles                   65                       # Number of cycles fetch has spent waiting on interrupts, or bad addresses, or out of MSHRs
system.cpu.fetch.PendingTrapStallCycles           351                       # Number of stall cycles due to pending traps
system.cpu.fetch.IcacheWaitRetryStallCycles           48                       # Number of stall cycles due to full MSHR
system.cpu.fetch.CacheLines                   3004946                       # Number of cache lines fetched
system.cpu.fetch.IcacheSquashes                   544                       # Number of outstanding Icache misses that were squashed
system.cpu.fetch.rateDist::samples           12644394                       # Number of instructions fetched each cycle (Total)
system.cpu.fetch.rateDist::mean              1.598756                       # Number of instructions fetched each cycle (Total)
system.cpu.fetch.rateDist::stdev             2.499828                       # Number of instructions fetched each cycle (Total)
system.cpu.fetch.rateDist::underflows               0      0.00%      0.00% # Number of instructions fetched each cycle (Total)
system.cpu.fetch.rateDist::0                  7861765     62.18%     62.18% # Number of instructions fetched each cycle (Total)
system.cpu.fetch.rateDist::1                   731051      5.78%     67.96% # Number of instructions fetched each cycle (Total)
system.cpu.fetch.rateDist::2                   677680      5.36%     73.32% # Number of instructions fetched each cycle (Total)
system.cpu.fetch.rateDist::3                   686835      5.43%     78.75% # Number of instructions fetched each cycle (Total)
system.cpu.fetch.rateDist::4                   519740      4.11%     82.86% # Number of instructions fetched each cycle (Total)
system.cpu.fetch.rateDist::5                   593075      4.69%     87.55% # Number of instructions fetched each cycle (Total)
system.cpu.fetch.rateDist::6                   683518      5.41%     92.96% # Number of instructions fetched each cycle (Total)
system.cpu.fetch.rateDist::7                   202896      1.60%     94.56% # Number of instructions fetched each cycle (Total)
system.cpu.fetch.rateDist::8                   687834      5.44%    100.00% # Number of instructions fetched each cycle (Total)
system.cpu.fetch.rateDist::overflows                0      0.00%    100.00% # Number of instructions fetched each cycle (Total)
system.cpu.fetch.rateDist::min_value                0                       # Number of instructions fetched each cycle (Total)
system.cpu.fetch.rateDist::max_value                8                       # Number of instructions fetched each cycle (Total)
system.cpu.fetch.rateDist::total             12644394                       # Number of instructions fetched each cycle (Total)
system.cpu.fetch.branchRate                  0.264830                       # Number of branch fetches per cycle
system.cpu.fetch.rate                        1.592096                       # Number of inst fetches per cycle
system.cpu.decode.IdleCycles                   743139                       # Number of cycles decode is idle
system.cpu.decode.BlockedCycles               9374092                       # Number of cycles decode is blocked
system.cpu.decode.RunCycles                    275091                       # Number of cycles decode is running
system.cpu.decode.UnblockCycles               2251406                       # Number of cycles decode is unblocking
system.cpu.decode.SquashCycles                    666                       # Number of cycles decode is squashing
system.cpu.decode.BranchResolved              1444923                       # Number of times decode resolved a branch
system.cpu.decode.BranchMispred                   254                       # Number of times decode detected a branch misprediction
system.cpu.decode.DecodedInsts               20202540                       # Number of instructions handled by decode
system.cpu.decode.SquashedInsts                   816                       # Number of squashed instructions handled by decode
system.cpu.rename.SquashCycles                    666                       # Number of cycles rename is squashing
system.cpu.rename.IdleCycles                  1268128                       # Number of cycles rename is idle
system.cpu.rename.BlockCycles                 4476481                       # Number of cycles rename is blocking
system.cpu.rename.serializeStallCycles           2076                       # count of cycles rename stalled for serializing inst
system.cpu.rename.RunCycles                   1397503                       # Number of cycles rename is running
system.cpu.rename.UnblockCycles               5499540                       # Number of cycles rename is unblocking
system.cpu.rename.RenamedInsts               20200380                       # Number of instructions processed by rename
system.cpu.rename.ROBFullEvents               4581473                       # Number of times rename has blocked due to ROB full
system.cpu.rename.SQFullEvents                  90733                       # Number of times rename has blocked due to SQ full
system.cpu.rename.RenamedOperands            26170467                       # Number of destination operands rename has renamed
system.cpu.rename.RenameLookups              93455754                       # Number of register rename lookups that rename has made
system.cpu.rename.int_rename_lookups         26647524                       # Number of integer rename lookups
system.cpu.rename.fp_rename_lookups                16                       # Number of floating rename lookups
system.cpu.rename.CommittedMaps              26164057                       # Number of HB maps that are committed
system.cpu.rename.UndoneMaps                     6409                       # Number of HB maps that are undone due to squashing
system.cpu.rename.serializingInsts                 33                       # count of serializing insts renamed
system.cpu.rename.tempSerializingInsts             32                       # count of temporary serializing insts renamed
system.cpu.rename.skidInsts                  14842992                       # count of insts added to the skid buffer
system.cpu.memDep0.insertedLoads              2803370                       # Number of loads inserted to the mem dependence unit.
system.cpu.memDep0.insertedStores              702529                       # Number of stores inserted to the mem dependence unit.
system.cpu.memDep0.conflictingLoads            692455                       # Number of conflicting loads.
system.cpu.memDep0.conflictingStores               82                       # Number of conflicting stores.
system.cpu.iq.iqInstsAdded                   20199030                       # Number of instructions added to the IQ (excludes non-spec)
system.cpu.iq.iqNonSpecInstsAdded                  49                       # Number of non-speculative instructions added to the IQ
system.cpu.iq.iqInstsIssued                  20197841                       # Number of instructions issued
system.cpu.iq.iqSquashedInstsIssued                 3                       # Number of squashed instructions issued
system.cpu.iq.iqSquashedInstsExamined            4366                       # Number of squashed instructions iterated over during squash; mainly for profiling
system.cpu.iq.iqSquashedOperandsExamined         8333                       # Number of squashed operands that are examined and possibly removed from graph
system.cpu.iq.iqSquashedNonSpecRemoved              3                       # Number of squashed non-spec instructions that were removed
system.cpu.iq.issued_per_cycle::samples      12644394                       # Number of insts issued each cycle
system.cpu.iq.issued_per_cycle::mean         1.597375                       # Number of insts issued each cycle
system.cpu.iq.issued_per_cycle::stdev        1.147162                       # Number of insts issued each cycle
system.cpu.iq.issued_per_cycle::underflows            0      0.00%      0.00% # Number of insts issued each cycle
system.cpu.iq.issued_per_cycle::0             1920959     15.19%     15.19% # Number of insts issued each cycle
system.cpu.iq.issued_per_cycle::1             4972966     39.33%     54.52% # Number of insts issued each cycle
system.cpu.iq.issued_per_cycle::2             3038273     24.03%     78.55% # Number of insts issued each cycle
system.cpu.iq.issued_per_cycle::3             1842625     14.57%     93.12% # Number of insts issued each cycle
system.cpu.iq.issued_per_cycle::4              727812      5.76%     98.88% # Number of insts issued each cycle
system.cpu.iq.issued_per_cycle::5              141402      1.12%    100.00% # Number of insts issued each cycle
system.cpu.iq.issued_per_cycle::6                 314      0.00%    100.00% # Number of insts issued each cycle
system.cpu.iq.issued_per_cycle::7                  32      0.00%    100.00% # Number of insts issued each cycle
system.cpu.iq.issued_per_cycle::8                  11      0.00%    100.00% # Number of insts issued each cycle
system.cpu.iq.issued_per_cycle::overflows            0      0.00%    100.00% # Number of insts issued each cycle
system.cpu.iq.issued_per_cycle::min_value            0                       # Number of insts issued each cycle
system.cpu.iq.issued_per_cycle::max_value            8                       # Number of insts issued each cycle
system.cpu.iq.issued_per_cycle::total        12644394                       # Number of insts issued each cycle
system.cpu.iq.fu_full::No_OpClass                   0      0.00%      0.00% # attempts to use FU when none available
system.cpu.iq.fu_full::IntAlu                       2      1.35%      1.35% # attempts to use FU when none available
system.cpu.iq.fu_full::IntMult                      0      0.00%      1.35% # attempts to use FU when none available
system.cpu.iq.fu_full::IntDiv                       0      0.00%      1.35% # attempts to use FU when none available
system.cpu.iq.fu_full::FloatAdd                     0      0.00%      1.35% # attempts to use FU when none available
system.cpu.iq.fu_full::FloatCmp                     0      0.00%      1.35% # attempts to use FU when none available
system.cpu.iq.fu_full::FloatCvt                     0      0.00%      1.35% # attempts to use FU when none available
system.cpu.iq.fu_full::FloatMult                    0      0.00%      1.35% # attempts to use FU when none available
system.cpu.iq.fu_full::FloatMultAcc                 0      0.00%      1.35% # attempts to use FU when none available
system.cpu.iq.fu_full::FloatDiv                     0      0.00%      1.35% # attempts to use FU when none available
system.cpu.iq.fu_full::FloatMisc                    0      0.00%      1.35% # attempts to use FU when none available
system.cpu.iq.fu_full::FloatSqrt                    0      0.00%      1.35% # attempts to use FU when none available
system.cpu.iq.fu_full::SimdAdd                      0      0.00%      1.35% # attempts to use FU when none available
system.cpu.iq.fu_full::SimdAddAcc                   0      0.00%      1.35% # attempts to use FU when none available
system.cpu.iq.fu_full::SimdAlu                      0      0.00%      1.35% # attempts to use FU when none available
system.cpu.iq.fu_full::SimdCmp                      0      0.00%      1.35% # attempts to use FU when none available
system.cpu.iq.fu_full::SimdCvt                      0      0.00%      1.35% # attempts to use FU when none available
system.cpu.iq.fu_full::SimdMisc                     0      0.00%      1.35% # attempts to use FU when none available
system.cpu.iq.fu_full::SimdMult                     0      0.00%      1.35% # attempts to use FU when none available
system.cpu.iq.fu_full::SimdMultAcc                  0      0.00%      1.35% # attempts to use FU when none available
system.cpu.iq.fu_full::SimdShift                    0      0.00%      1.35% # attempts to use FU when none available
system.cpu.iq.fu_full::SimdShiftAcc                 0      0.00%      1.35% # attempts to use FU when none available
system.cpu.iq.fu_full::SimdSqrt                     0      0.00%      1.35% # attempts to use FU when none available
system.cpu.iq.fu_full::SimdFloatAdd                 0      0.00%      1.35% # attempts to use FU when none available
system.cpu.iq.fu_full::SimdFloatAlu                 0      0.00%      1.35% # attempts to use FU when none available
system.cpu.iq.fu_full::SimdFloatCmp                 0      0.00%      1.35% # attempts to use FU when none available
system.cpu.iq.fu_full::SimdFloatCvt                 0      0.00%      1.35% # attempts to use FU when none available
system.cpu.iq.fu_full::SimdFloatDiv                 0      0.00%      1.35% # attempts to use FU when none available
system.cpu.iq.fu_full::SimdFloatMisc                0      0.00%      1.35% # attempts to use FU when none available
system.cpu.iq.fu_full::SimdFloatMult                0      0.00%      1.35% # attempts to use FU when none available
system.cpu.iq.fu_full::SimdFloatMultAcc             0      0.00%      1.35% # attempts to use FU when none available
system.cpu.iq.fu_full::SimdFloatSqrt                0      0.00%      1.35% # attempts to use FU when none available
system.cpu.iq.fu_full::MemRead                     53     35.81%     37.16% # attempts to use FU when none available
system.cpu.iq.fu_full::MemWrite                    93     62.84%    100.00% # attempts to use FU when none available
system.cpu.iq.fu_full::FloatMemRead                 0      0.00%    100.00% # attempts to use FU when none available
system.cpu.iq.fu_full::FloatMemWrite                0      0.00%    100.00% # attempts to use FU when none available
system.cpu.iq.fu_full::IprAccess                    0      0.00%    100.00% # attempts to use FU when none available
system.cpu.iq.fu_full::InstPrefetch                 0      0.00%    100.00% # attempts to use FU when none available
system.cpu.iq.FU_type_0::No_OpClass                 9      0.00%      0.00% # Type of FU issued
system.cpu.iq.FU_type_0::IntAlu              16692103     82.64%     82.64% # Type of FU issued
system.cpu.iq.FU_type_0::IntMult                   64      0.00%     82.64% # Type of FU issued
system.cpu.iq.FU_type_0::IntDiv                     0      0.00%     82.64% # Type of FU issued
system.cpu.iq.FU_type_0::FloatAdd                   0      0.00%     82.64% # Type of FU issued
system.cpu.iq.FU_type_0::FloatCmp                   0      0.00%     82.64% # Type of FU issued
system.cpu.iq.FU_type_0::FloatCvt                   0      0.00%     82.64% # Type of FU issued
system.cpu.iq.FU_type_0::FloatMult                  0      0.00%     82.64% # Type of FU issued
system.cpu.iq.FU_type_0::FloatMultAcc               0      0.00%     82.64% # Type of FU issued
system.cpu.iq.FU_type_0::FloatDiv                   0      0.00%     82.64% # Type of FU issued
system.cpu.iq.FU_type_0::FloatMisc                  0      0.00%     82.64% # Type of FU issued
system.cpu.iq.FU_type_0::FloatSqrt                  0      0.00%     82.64% # Type of FU issued
system.cpu.iq.FU_type_0::SimdAdd                    0      0.00%     82.64% # Type of FU issued
system.cpu.iq.FU_type_0::SimdAddAcc                 0      0.00%     82.64% # Type of FU issued
system.cpu.iq.FU_type_0::SimdAlu                    0      0.00%     82.64% # Type of FU issued
system.cpu.iq.FU_type_0::SimdCmp                    0      0.00%     82.64% # Type of FU issued
system.cpu.iq.FU_type_0::SimdCvt                    0      0.00%     82.64% # Type of FU issued
system.cpu.iq.FU_type_0::SimdMisc                   0      0.00%     82.64% # Type of FU issued
system.cpu.iq.FU_type_0::SimdMult                   0      0.00%     82.64% # Type of FU issued
system.cpu.iq.FU_type_0::SimdMultAcc                0      0.00%     82.64% # Type of FU issued
system.cpu.iq.FU_type_0::SimdShift                  0      0.00%     82.64% # Type of FU issued
system.cpu.iq.FU_type_0::SimdShiftAcc               0      0.00%     82.64% # Type of FU issued
system.cpu.iq.FU_type_0::SimdSqrt                   0      0.00%     82.64% # Type of FU issued
system.cpu.iq.FU_type_0::SimdFloatAdd               0      0.00%     82.64% # Type of FU issued
system.cpu.iq.FU_type_0::SimdFloatAlu               0      0.00%     82.64% # Type of FU issued
system.cpu.iq.FU_type_0::SimdFloatCmp               0      0.00%     82.64% # Type of FU issued
system.cpu.iq.FU_type_0::SimdFloatCvt               0      0.00%     82.64% # Type of FU issued
system.cpu.iq.FU_type_0::SimdFloatDiv               0      0.00%     82.64% # Type of FU issued
system.cpu.iq.FU_type_0::SimdFloatMisc              1      0.00%     82.64% # Type of FU issued
system.cpu.iq.FU_type_0::SimdFloatMult              0      0.00%     82.64% # Type of FU issued
system.cpu.iq.FU_type_0::SimdFloatMultAcc            0      0.00%     82.64% # Type of FU issued
system.cpu.iq.FU_type_0::SimdFloatSqrt              0      0.00%     82.64% # Type of FU issued
system.cpu.iq.FU_type_0::MemRead              2803264     13.88%     96.52% # Type of FU issued
system.cpu.iq.FU_type_0::MemWrite              702384      3.48%    100.00% # Type of FU issued
system.cpu.iq.FU_type_0::FloatMemRead               0      0.00%    100.00% # Type of FU issued
system.cpu.iq.FU_type_0::FloatMemWrite             16      0.00%    100.00% # Type of FU issued
system.cpu.iq.FU_type_0::IprAccess                  0      0.00%    100.00% # Type of FU issued
system.cpu.iq.FU_type_0::InstPrefetch               0      0.00%    100.00% # Type of FU issued
system.cpu.iq.FU_type_0::total               20197841                       # Type of FU issued
system.cpu.iq.rate                           1.591037                       # Inst issue rate
system.cpu.iq.fu_busy_cnt                         148                       # FU busy when requested
system.cpu.iq.fu_busy_rate                   0.000007                       # FU busy rate (busy events/executed inst)
system.cpu.iq.int_inst_queue_reads           53040195                       # Number of integer instruction queue reads
system.cpu.iq.int_inst_queue_writes          20203457                       # Number of integer instruction queue writes
system.cpu.iq.int_inst_queue_wakeup_accesses     20196857                       # Number of integer instruction queue wakeup accesses
system.cpu.iq.fp_inst_queue_reads                  32                       # Number of floating instruction queue reads
system.cpu.iq.fp_inst_queue_writes                 16                       # Number of floating instruction queue writes
system.cpu.iq.fp_inst_queue_wakeup_accesses           16                       # Number of floating instruction queue wakeup accesses
system.cpu.iq.vec_inst_queue_reads                  0                       # Number of vector instruction queue reads
system.cpu.iq.vec_inst_queue_writes                 0                       # Number of vector instruction queue writes
system.cpu.iq.vec_inst_queue_wakeup_accesses            0                       # Number of vector instruction queue wakeup accesses
system.cpu.iq.int_alu_accesses               20197964                       # Number of integer alu accesses
system.cpu.iq.fp_alu_accesses                      16                       # Number of floating point alu accesses
system.cpu.iq.vec_alu_accesses                      0                       # Number of vector alu accesses
system.cpu.iew.lsq.thread0.forwLoads           699097                       # Number of loads that had data forwarded from stores
system.cpu.iew.lsq.thread0.invAddrLoads             0                       # Number of loads ignored due to an invalid address
system.cpu.iew.lsq.thread0.squashedLoads          916                       # Number of loads squashed
system.cpu.iew.lsq.thread0.ignoredResponses            5                       # Number of memory responses ignored because the instruction is squashed
system.cpu.iew.lsq.thread0.memOrderViolation           28                       # Number of memory ordering violations
system.cpu.iew.lsq.thread0.squashedStores          378                       # Number of stores squashed
system.cpu.iew.lsq.thread0.invAddrSwpfs             0                       # Number of software prefetches ignored due to an invalid address
system.cpu.iew.lsq.thread0.blockedLoads             0                       # Number of blocked loads due to partial load-store forwarding
system.cpu.iew.lsq.thread0.rescheduledLoads            5                       # Number of loads that were rescheduled
system.cpu.iew.lsq.thread0.cacheBlocked            18                       # Number of times an access to memory failed due to the cache being blocked
system.cpu.iew.iewIdleCycles                        0                       # Number of cycles IEW is idle
system.cpu.iew.iewSquashCycles                    666                       # Number of cycles IEW is squashing
system.cpu.iew.iewBlockCycles                     277                       # Number of cycles IEW is blocking
system.cpu.iew.iewUnblockCycles                    15                       # Number of cycles IEW is unblocking
system.cpu.iew.iewDispatchedInsts            20199079                       # Number of instructions dispatched to IQ
system.cpu.iew.iewDispSquashedInsts               401                       # Number of squashed instructions skipped by dispatch
system.cpu.iew.iewDispLoadInsts               2803370                       # Number of dispatched load instructions
system.cpu.iew.iewDispStoreInsts               702529                       # Number of dispatched store instructions
system.cpu.iew.iewDispNonSpecInsts                 31                       # Number of dispatched non-speculative instructions
system.cpu.iew.iewIQFullEvents                      0                       # Number of times the IQ has become full, causing a stall
system.cpu.iew.iewLSQFullEvents                    15                       # Number of times the LSQ has become full, causing a stall
system.cpu.iew.memOrderViolationEvents             28                       # Number of memory order violations
system.cpu.iew.predictedTakenIncorrect            198                       # Number of branches that were predicted taken incorrectly
system.cpu.iew.predictedNotTakenIncorrect          458                       # Number of branches that were predicted not taken incorrectly
system.cpu.iew.branchMispredicts                  656                       # Number of branch mispredicts detected at execute
system.cpu.iew.iewExecutedInsts              20197246                       # Number of executed instructions
system.cpu.iew.iewExecLoadInsts               2803148                       # Number of load instructions executed
system.cpu.iew.iewExecSquashedInsts               595                       # Number of squashed instructions skipped in execute
system.cpu.iew.exec_swp                             0                       # number of swp insts executed
system.cpu.iew.exec_nop                             0                       # number of nop insts executed
system.cpu.iew.exec_refs                      3505504                       # number of memory reference insts executed
system.cpu.iew.exec_branches                  3359046                       # Number of branches executed
system.cpu.iew.exec_stores                     702356                       # Number of stores executed
system.cpu.iew.exec_rate                     1.590990                       # Inst execution rate
system.cpu.iew.wb_sent                       20196936                       # cumulative count of insts sent to commit
system.cpu.iew.wb_count                      20196873                       # cumulative count of insts written-back
system.cpu.iew.wb_producers                  13267242                       # num instructions producing a value
system.cpu.iew.wb_consumers                  30166955                       # num instructions consuming a value
system.cpu.iew.wb_rate                       1.590961                       # insts written-back per cycle
system.cpu.iew.wb_fanout                     0.439794                       # average fanout of values written-back
system.cpu.commit.commitSquashedInsts            4356                       # The number of squashed insts skipped by commit
system.cpu.commit.commitNonSpecStalls              46                       # The number of times commit has been forced to stall to communicate backwards
system.cpu.commit.branchMispredicts               629                       # The number of times a branch was mispredicted
system.cpu.commit.committed_per_cycle::samples     12643507                       # Number of insts commited each cycle
system.cpu.commit.committed_per_cycle::mean     1.597240                       # Number of insts commited each cycle
system.cpu.commit.committed_per_cycle::stdev     1.329848                       # Number of insts commited each cycle
system.cpu.commit.committed_per_cycle::underflows            0      0.00%      0.00% # Number of insts commited each cycle
system.cpu.commit.committed_per_cycle::0      1621565     12.83%     12.83% # Number of insts commited each cycle
system.cpu.commit.committed_per_cycle::1      6321666     50.00%     62.82% # Number of insts commited each cycle
system.cpu.commit.committed_per_cycle::2      2325050     18.39%     81.21% # Number of insts commited each cycle
system.cpu.commit.committed_per_cycle::3      1155055      9.14%     90.35% # Number of insts commited each cycle
system.cpu.commit.committed_per_cycle::4       820408      6.49%     96.84% # Number of insts commited each cycle
system.cpu.commit.committed_per_cycle::5        35892      0.28%     97.12% # Number of insts commited each cycle
system.cpu.commit.committed_per_cycle::6       250523      1.98%     99.10% # Number of insts commited each cycle
system.cpu.commit.committed_per_cycle::7       113233      0.90%    100.00% # Number of insts commited each cycle
system.cpu.commit.committed_per_cycle::8          115      0.00%    100.00% # Number of insts commited each cycle
system.cpu.commit.committed_per_cycle::overflows            0      0.00%    100.00% # Number of insts commited each cycle
system.cpu.commit.committed_per_cycle::min_value            0                       # Number of insts commited each cycle
system.cpu.commit.committed_per_cycle::max_value            8                       # Number of insts commited each cycle
system.cpu.commit.committed_per_cycle::total     12643507                       # Number of insts commited each cycle
system.cpu.commit.committedInsts             20192680                       # Number of instructions committed
system.cpu.commit.committedOps               20194712                       # Number of ops (including micro ops) committed
system.cpu.commit.swp_count                         0                       # Number of s/w prefetches committed
system.cpu.commit.refs                        3504605                       # Number of memory references committed
system.cpu.commit.loads                       2802454                       # Number of loads committed
system.cpu.commit.membars                          18                       # Number of memory barriers committed
system.cpu.commit.branches                    3358669                       # Number of branches committed
system.cpu.commit.vec_insts                         0                       # Number of committed Vector instructions.
system.cpu.commit.fp_insts                         16                       # Number of committed floating point instructions.
system.cpu.commit.int_insts                  18236721                       # Number of committed integer instructions.
system.cpu.commit.function_calls               500258                       # Number of function calls committed.
system.cpu.commit.op_class_0::No_OpClass            0      0.00%      0.00% # Class of committed instruction
system.cpu.commit.op_class_0::IntAlu         16690046     82.65%     82.65% # Class of committed instruction
system.cpu.commit.op_class_0::IntMult              60      0.00%     82.65% # Class of committed instruction
system.cpu.commit.op_class_0::IntDiv                0      0.00%     82.65% # Class of committed instruction
system.cpu.commit.op_class_0::FloatAdd              0      0.00%     82.65% # Class of committed instruction
system.cpu.commit.op_class_0::FloatCmp              0      0.00%     82.65% # Class of committed instruction
system.cpu.commit.op_class_0::FloatCvt              0      0.00%     82.65% # Class of committed instruction
system.cpu.commit.op_class_0::FloatMult             0      0.00%     82.65% # Class of committed instruction
system.cpu.commit.op_class_0::FloatMultAcc            0      0.00%     82.65% # Class of committed instruction
[...]
system.l2.ReadExReq_accesses::total             12566                       # number of ReadExReq accesses(hits+misses)
system.l2.ReadCleanReq_accesses::.cpu.inst          581                       # number of ReadCleanReq accesses(hits+misses)
system.l2.ReadCleanReq_accesses::total            581                       # number of ReadCleanReq accesses(hits+misses)
system.l2.ReadSharedReq_accesses::.cpu.data        18923                       # number of ReadSharedReq accesses(hits+misses)
system.l2.ReadSharedReq_accesses::total         18923                       # number of ReadSharedReq accesses(hits+misses)
system.l2.demand_accesses::.cpu.inst              581                       # number of demand (read+write) accesses
system.l2.demand_accesses::.cpu.data            31489                       # number of demand (read+write) accesses
system.l2.demand_accesses::total                32070                       # number of demand (read+write) accesses
system.l2.overall_accesses::.cpu.inst             581                       # number of overall (read+write) accesses
system.l2.overall_accesses::.cpu.data           31489                       # number of overall (read+write) accesses
system.l2.overall_accesses::total               32070                       # number of overall (read+write) accesses
system.l2.ReadExReq_miss_rate::.cpu.data     0.998965                       # miss rate for ReadExReq accesses
system.l2.ReadExReq_miss_rate::total         0.998965                       # miss rate for ReadExReq accesses
system.l2.ReadCleanReq_miss_rate::.cpu.inst     0.900172                       # miss rate for ReadCleanReq accesses
system.l2.ReadCleanReq_miss_rate::total      0.900172                       # miss rate for ReadCleanReq accesses
system.l2.ReadSharedReq_miss_rate::.cpu.data     0.006659                       # miss rate for ReadSharedReq accesses
system.l2.ReadSharedReq_miss_rate::total     0.006659                       # miss rate for ReadSharedReq accesses
system.l2.demand_miss_rate::.cpu.inst        0.900172                       # miss rate for demand accesses
system.l2.demand_miss_rate::.cpu.data        0.402649                       # miss rate for demand accesses
system.l2.demand_miss_rate::total            0.411662                       # miss rate for demand accesses
system.l2.overall_miss_rate::.cpu.inst       0.900172                       # miss rate for overall accesses
system.l2.overall_miss_rate::.cpu.data       0.402649                       # miss rate for overall accesses
system.l2.overall_miss_rate::total           0.411662                       # miss rate for overall accesses
system.l2.ReadExReq_avg_miss_latency::.cpu.data 90642.834382                       # average ReadExReq miss latency
system.l2.ReadExReq_avg_miss_latency::total 90642.834382                       # average ReadExReq miss latency
system.l2.ReadCleanReq_avg_miss_latency::.cpu.inst 86829.827916                       # average ReadCleanReq miss latency
system.l2.ReadCleanReq_avg_miss_latency::total 86829.827916                       # average ReadCleanReq miss latency
system.l2.ReadSharedReq_avg_miss_latency::.cpu.data 94079.365079                       # average ReadSharedReq miss latency
system.l2.ReadSharedReq_avg_miss_latency::total 94079.365079                       # average ReadSharedReq miss latency
system.l2.demand_avg_miss_latency::.cpu.inst 86829.827916                       # average overall miss latency
system.l2.demand_avg_miss_latency::.cpu.data 90676.985567                       # average overall miss latency
system.l2.demand_avg_miss_latency::total 90524.579609                       # average overall miss latency
system.l2.overall_avg_miss_latency::.cpu.inst 86829.827916                       # average overall miss latency
system.l2.overall_avg_miss_latency::.cpu.data 90676.985567                       # average overall miss latency
system.l2.overall_avg_miss_latency::total 90524.579609                       # average overall miss latency
system.l2.blocked_cycles::no_mshrs                  0                       # number of cycles access was blocked
system.l2.blocked_cycles::no_targets                0                       # number of cycles access was blocked
system.l2.blocked::no_mshrs                         0                       # number of cycles access was blocked
system.l2.blocked::no_targets                       0                       # number of cycles access was blocked
system.l2.avg_blocked_cycles::no_mshrs            nan                       # average number of cycles each access was blocked
system.l2.avg_blocked_cycles::no_targets          nan                       # average number of cycles each access was blocked
system.l2.ReadSharedReq_mshr_hits::.cpu.data            7                       # number of ReadSharedReq MSHR hits
system.l2.ReadSharedReq_mshr_hits::total            7                       # number of ReadSharedReq MSHR hits
system.l2.demand_mshr_hits::.cpu.data               7                       # number of demand (read+write) MSHR hits
system.l2.demand_mshr_hits::total                   7                       # number of demand (read+write) MSHR hits
system.l2.overall_mshr_hits::.cpu.data              7                       # number of overall MSHR hits
system.l2.overall_mshr_hits::total                  7                       # number of overall MSHR hits
system.l2.ReadExReq_mshr_misses::.cpu.data        12553                       # number of ReadExReq MSHR misses
system.l2.ReadExReq_mshr_misses::total          12553                       # number of ReadExReq MSHR misses
system.l2.ReadCleanReq_mshr_misses::.cpu.inst          523                       # number of ReadCleanReq MSHR misses
system.l2.ReadCleanReq_mshr_misses::total          523                       # number of ReadCleanReq MSHR misses
system.l2.ReadSharedReq_mshr_misses::.cpu.data          119                       # number of ReadSharedReq MSHR misses
system.l2.ReadSharedReq_mshr_misses::total          119                       # number of ReadSharedReq MSHR misses
system.l2.demand_mshr_misses::.cpu.inst           523                       # number of demand (read+write) MSHR misses
system.l2.demand_mshr_misses::.cpu.data         12672                       # number of demand (read+write) MSHR misses
system.l2.demand_mshr_misses::total             13195                       # number of demand (read+write) MSHR misses
system.l2.overall_mshr_misses::.cpu.inst          523                       # number of overall MSHR misses
system.l2.overall_mshr_misses::.cpu.data        12672                       # number of overall MSHR misses
system.l2.overall_mshr_misses::total            13195                       # number of overall MSHR misses
system.l2.ReadExReq_mshr_miss_latency::.cpu.data   1012309500                       # number of ReadExReq MSHR miss cycles
system.l2.ReadExReq_mshr_miss_latency::total   1012309500                       # number of ReadExReq MSHR miss cycles
system.l2.ReadCleanReq_mshr_miss_latency::.cpu.inst     40192000                       # number of ReadCleanReq MSHR miss cycles
system.l2.ReadCleanReq_mshr_miss_latency::total     40192000                       # number of ReadCleanReq MSHR miss cycles
system.l2.ReadSharedReq_mshr_miss_latency::.cpu.data     10191500                       # number of ReadSharedReq MSHR miss cycles
system.l2.ReadSharedReq_mshr_miss_latency::total     10191500                       # number of ReadSharedReq MSHR miss cycles
system.l2.demand_mshr_miss_latency::.cpu.inst     40192000                       # number of demand (read+write) MSHR miss cycles
system.l2.demand_mshr_miss_latency::.cpu.data   1022501000                       # number of demand (read+write) MSHR miss cycles
system.l2.demand_mshr_miss_latency::total   1062693000                       # number of demand (read+write) MSHR miss cycles
system.l2.overall_mshr_miss_latency::.cpu.inst     40192000                       # number of overall MSHR miss cycles
system.l2.overall_mshr_miss_latency::.cpu.data   1022501000                       # number of overall MSHR miss cycles
system.l2.overall_mshr_miss_latency::total   1062693000                       # number of overall MSHR miss cycles
system.l2.ReadExReq_mshr_miss_rate::.cpu.data     0.998965                       # mshr miss rate for ReadExReq accesses
system.l2.ReadExReq_mshr_miss_rate::total     0.998965                       # mshr miss rate for ReadExReq accesses
system.l2.ReadCleanReq_mshr_miss_rate::.cpu.inst     0.900172                       # mshr miss rate for ReadCleanReq accesses
system.l2.ReadCleanReq_mshr_miss_rate::total     0.900172                       # mshr miss rate for ReadCleanReq accesses
system.l2.ReadSharedReq_mshr_miss_rate::.cpu.data     0.006289                       # mshr miss rate for ReadSharedReq accesses
system.l2.ReadSharedReq_mshr_miss_rate::total     0.006289                       # mshr miss rate for ReadSharedReq accesses
system.l2.demand_mshr_miss_rate::.cpu.inst     0.900172                       # mshr miss rate for demand accesses
system.l2.demand_mshr_miss_rate::.cpu.data     0.402426                       # mshr miss rate for demand accesses
system.l2.demand_mshr_miss_rate::total       0.411444                       # mshr miss rate for demand accesses
system.l2.overall_mshr_miss_rate::.cpu.inst     0.900172                       # mshr miss rate for overall accesses
system.l2.overall_mshr_miss_rate::.cpu.data     0.402426                       # mshr miss rate for overall accesses
system.l2.overall_mshr_miss_rate::total      0.411444                       # mshr miss rate for overall accesses
system.l2.ReadExReq_avg_mshr_miss_latency::.cpu.data 80642.834382                       # average ReadExReq mshr miss latency
system.l2.ReadExReq_avg_mshr_miss_latency::total 80642.834382                       # average ReadExReq mshr miss latency
system.l2.ReadCleanReq_avg_mshr_miss_latency::.cpu.inst 76848.948375                       # average ReadCleanReq mshr miss latency
system.l2.ReadCleanReq_avg_mshr_miss_latency::total 76848.948375                       # average ReadCleanReq mshr miss latency
system.l2.ReadSharedReq_avg_mshr_miss_latency::.cpu.data 85642.857143                       # average ReadSharedReq mshr miss latency
system.l2.ReadSharedReq_avg_mshr_miss_latency::total 85642.857143                       # average ReadSharedReq mshr miss latency
system.l2.demand_avg_mshr_miss_latency::.cpu.inst 76848.948375                       # average overall mshr miss latency
system.l2.demand_avg_mshr_miss_latency::.cpu.data 80689.788510                       # average overall mshr miss latency
system.l2.demand_avg_mshr_miss_latency::total 80537.552103                       # average overall mshr miss latency
system.l2.overall_avg_mshr_miss_latency::.cpu.inst 76848.948375                       # average overall mshr miss latency
system.l2.overall_avg_mshr_miss_latency::.cpu.data 80689.788510                       # average overall mshr miss latency
system.l2.overall_avg_mshr_miss_latency::total 80537.552103                       # average overall mshr miss latency
system.l2.replacements                              0                       # number of replacements
system.membus.snoop_filter.tot_requests         13194                       # Total number of requests made to the snoop filter.
system.membus.snoop_filter.hit_single_requests            0                       # Number of requests hitting in the snoop filter with a single holder of the requested data.
system.membus.snoop_filter.hit_multi_requests            0                       # Number of requests hitting in the snoop filter with multiple (>1) holders of the requested data.
system.membus.snoop_filter.tot_snoops               0                       # Total number of snoops made to the snoop filter.
system.membus.snoop_filter.hit_single_snoops            0                       # Number of snoops hitting in the snoop filter with a single holder of the requested data.
system.membus.snoop_filter.hit_multi_snoops            0                       # Number of snoops hitting in the snoop filter with multiple (>1) holders of the requested data.
system.membus.pwrStateResidencyTicks::UNDEFINED   6347382500                       # Cumulative time (in ticks) in various power states
system.membus.trans_dist::ReadResp                641                       # Transaction distribution
system.membus.trans_dist::ReadExReq             12553                       # Transaction distribution
system.membus.trans_dist::ReadExResp            12553                       # Transaction distribution
system.membus.trans_dist::ReadSharedReq           641                       # Transaction distribution
system.membus.pkt_count_system.l2.mem_side::system.mem_ctrls.port        26388                       # Packet count per connected master and slave (bytes)
system.membus.pkt_count::total                  26388                       # Packet count per connected master and slave (bytes)
system.membus.pkt_size_system.l2.mem_side::system.mem_ctrls.port       844416                       # Cumulative packet size per connected master and slave (bytes)
system.membus.pkt_size::total                  844416                       # Cumulative packet size per connected master and slave (bytes)
system.membus.snoops                                0                       # Total snoops (count)
system.membus.snoopTraffic                          0                       # Total snoop traffic (bytes)
system.membus.snoop_fanout::samples             13194                       # Request fanout histogram
system.membus.snoop_fanout::mean                    0                       # Request fanout histogram
system.membus.snoop_fanout::stdev                   0                       # Request fanout histogram
system.membus.snoop_fanout::underflows              0      0.00%      0.00% # Request fanout histogram
system.membus.snoop_fanout::0                   13194    100.00%    100.00% # Request fanout histogram
system.membus.snoop_fanout::1                       0      0.00%    100.00% # Request fanout histogram
system.membus.snoop_fanout::overflows               0      0.00%    100.00% # Request fanout histogram
system.membus.snoop_fanout::min_value               0                       # Request fanout histogram
system.membus.snoop_fanout::max_value               0                       # Request fanout histogram
system.membus.snoop_fanout::total               13194                       # Request fanout histogram
system.membus.reqLayer0.occupancy            16564000                       # Layer occupancy (ticks)
system.membus.reqLayer0.utilization               0.3                       # Layer utilization (%)
system.membus.respLayer1.occupancy           69781000                       # Layer occupancy (ticks)
system.membus.respLayer1.utilization              1.1                       # Layer utilization (%)
system.tol2bus.snoop_filter.tot_requests        62710                       # Total number of requests made to the snoop filter.
system.tol2bus.snoop_filter.hit_single_requests        30658                       # Number of requests hitting in the snoop filter with a single holder of the requested data.
system.tol2bus.snoop_filter.hit_multi_requests           34                       # Number of requests hitting in the snoop filter with multiple (>1) holders of the requested data.
system.tol2bus.snoop_filter.tot_snoops              0                       # Total number of snoops made to the snoop filter.
system.tol2bus.snoop_filter.hit_single_snoops            0                       # Number of snoops hitting in the snoop filter with a single holder of the requested data.
system.tol2bus.snoop_filter.hit_multi_snoops            0                       # Number of snoops hitting in the snoop filter with multiple (>1) holders of the requested data.
system.tol2bus.pwrStateResidencyTicks::UNDEFINED   6347382500                       # Cumulative time (in ticks) in various power states
system.tol2bus.trans_dist::ReadResp             19503                       # Transaction distribution
system.tol2bus.trans_dist::WritebackDirty        30387                       # Transaction distribution
system.tol2bus.trans_dist::WritebackClean          175                       # Transaction distribution
system.tol2bus.trans_dist::CleanEvict              78                       # Transaction distribution
system.tol2bus.trans_dist::ReadExReq            12566                       # Transaction distribution
system.tol2bus.trans_dist::ReadExResp           12566                       # Transaction distribution
system.tol2bus.trans_dist::ReadCleanReq           581                       # Transaction distribution
system.tol2bus.trans_dist::ReadSharedReq        18923                       # Transaction distribution
system.tol2bus.pkt_count_system.cpu.icache.mem_side::system.l2.cpu_side         1336                       # Packet count per connected master and slave (bytes)
system.tol2bus.pkt_count_system.cpu.dcache.mem_side::system.l2.cpu_side        93443                       # Packet count per connected master and slave (bytes)
system.tol2bus.pkt_count::total                 94779                       # Packet count per connected master and slave (bytes)
system.tol2bus.pkt_size_system.cpu.icache.mem_side::system.l2.cpu_side        48320                       # Cumulative packet size per connected master and slave (bytes)
system.tol2bus.pkt_size_system.cpu.dcache.mem_side::system.l2.cpu_side      3960064                       # Cumulative packet size per connected master and slave (bytes)
system.tol2bus.pkt_size::total                4008384                       # Cumulative packet size per connected master and slave (bytes)
system.tol2bus.snoops                               0                       # Total snoops (count)
system.tol2bus.snoopTraffic                         0                       # Total snoop traffic (bytes)
system.tol2bus.snoop_fanout::samples            32070                       # Request fanout histogram
system.tol2bus.snoop_fanout::mean            0.001621                       # Request fanout histogram
system.tol2bus.snoop_fanout::stdev           0.040235                       # Request fanout histogram
system.tol2bus.snoop_fanout::underflows             0      0.00%      0.00% # Request fanout histogram
system.tol2bus.snoop_fanout::0                  32018     99.84%     99.84% # Request fanout histogram
system.tol2bus.snoop_fanout::1                     52      0.16%    100.00% # Request fanout histogram
system.tol2bus.snoop_fanout::2                      0      0.00%    100.00% # Request fanout histogram
system.tol2bus.snoop_fanout::overflows              0      0.00%    100.00% # Request fanout histogram
system.tol2bus.snoop_fanout::min_value              0                       # Request fanout histogram
system.tol2bus.snoop_fanout::max_value              1                       # Request fanout histogram
system.tol2bus.snoop_fanout::total              32070                       # Request fanout histogram
system.tol2bus.reqLayer0.occupancy           61917000                       # Layer occupancy (ticks)
system.tol2bus.reqLayer0.utilization              1.0                       # Layer utilization (%)
system.tol2bus.respLayer0.occupancy            870000                       # Layer occupancy (ticks)
system.tol2bus.respLayer0.utilization             0.0                       # Layer utilization (%)
system.tol2bus.respLayer1.occupancy          47237492                       # Layer occupancy (ticks)
system.tol2bus.respLayer1.utilization             0.7                       # Layer utilization (%)

---------- End Simulation Statistics   ----------
