
---------- Begin Simulation Statistics ----------
sim_seconds                                  0.003933                       # Number of seconds simulated
sim_ticks                                  3933477000                       # Number of ticks simulated
final_tick                                 3933477000                       # Number of ticks from beginning of simulation (restored from checkpoints and never reset)
sim_freq                                 1000000000000                       # Frequency of simulated ticks
host_inst_rate                                 118030                       # Simulator instruction rate (inst/s)
host_op_rate                                   254756                       # Simulator op (including micro ops) rate (op/s)
host_tick_rate                            11251183516                       # Simulator tick rate (ticks/s)
host_mem_usage                                 788140                       # Number of bytes of host memory used
host_seconds                                     0.35                       # Real time elapsed on the host
sim_insts                                       41261                       # Number of instructions simulated
sim_ops                                         89061                       # Number of ops (including micro ops) simulated
system.clk_domain.voltage_domain.voltage            1                       # Voltage in Volts
system.clk_domain.clock                          1000                       # Clock period in ticks
system.mem_ctrl.pwrStateResidencyTicks::UNDEFINED   3933477000                       # Cumulative time (in ticks) in various power states
system.mem_ctrl.bytes_read::.cpu.inst          428384                       # Number of bytes read from this memory
system.mem_ctrl.bytes_read::.cpu.data           71104                       # Number of bytes read from this memory
system.mem_ctrl.bytes_read::total              499488                       # Number of bytes read from this memory
system.mem_ctrl.bytes_inst_read::.cpu.inst       428384                       # Number of instructions bytes read from this memory
system.mem_ctrl.bytes_inst_read::total         428384                       # Number of instructions bytes read from this memory
system.mem_ctrl.bytes_written::.cpu.data        42955                       # Number of bytes written to this memory
system.mem_ctrl.bytes_written::total            42955                       # Number of bytes written to this memory
system.mem_ctrl.num_reads::.cpu.inst            53548                       # Number of read requests responded to by this memory
system.mem_ctrl.num_reads::.cpu.data            11973                       # Number of read requests responded to by this memory
system.mem_ctrl.num_reads::total                65521                       # Number of read requests responded to by this memory
system.mem_ctrl.num_writes::.cpu.data            6805                       # Number of write requests responded to by this memory
system.mem_ctrl.num_writes::total                6805                       # Number of write requests responded to by this memory
system.mem_ctrl.bw_read::.cpu.inst          108907209                       # Total read bandwidth from this memory (bytes/s)
system.mem_ctrl.bw_read::.cpu.data           18076628                       # Total read bandwidth from this memory (bytes/s)
system.mem_ctrl.bw_read::total              126983836                       # Total read bandwidth from this memory (bytes/s)
system.mem_ctrl.bw_inst_read::.cpu.inst     108907209                       # Instruction read bandwidth from this memory (bytes/s)
system.mem_ctrl.bw_inst_read::total         108907209                       # Instruction read bandwidth from this memory (bytes/s)
system.mem_ctrl.bw_write::.cpu.data          10920364                       # Write bandwidth from this memory (bytes/s)
system.mem_ctrl.bw_write::total              10920364                       # Write bandwidth from this memory (bytes/s)
system.mem_ctrl.bw_total::.cpu.inst         108907209                       # Total bandwidth to/from this memory (bytes/s)
system.mem_ctrl.bw_total::.cpu.data          28996992                       # Total bandwidth to/from this memory (bytes/s)
system.mem_ctrl.bw_total::total             137904200                       # Total bandwidth to/from this memory (bytes/s)
system.mem_ctrl.avgPriority_.cpu.inst::samples     53549.00                       # Average QoS priority value for accepted requests
system.mem_ctrl.avgPriority_.cpu.data::samples     10791.00                       # Average QoS priority value for accepted requests
system.mem_ctrl.priorityMinLatency       0.000000018750                       # per QoS priority minimum request to response latency (s)
system.mem_ctrl.priorityMaxLatency       0.006117856750                       # per QoS priority maximum request to response latency (s)
system.mem_ctrl.numReadWriteTurnArounds            17                       # Number of turnarounds from READ to WRITE
system.mem_ctrl.numWriteReadTurnArounds            17                       # Number of turnarounds from WRITE to READ
system.mem_ctrl.numStayReadState               135706                       # Number of times bus staying in READ state
system.mem_ctrl.numStayWriteState                 257                       # Number of times bus staying in WRITE state
system.mem_ctrl.readReqs                        65522                       # Number of read requests accepted
system.mem_ctrl.writeReqs                        6805                       # Number of write requests accepted
system.mem_ctrl.readBursts                      65522                       # Number of DRAM read bursts, including those serviced by the write queue
system.mem_ctrl.writeBursts                      6805                       # Number of DRAM write bursts, including those merged in the write queue
system.mem_ctrl.bytesReadDRAM                 4098688                       # Total number of bytes read from DRAM
system.mem_ctrl.bytesReadWrQ                    94720                       # Total number of bytes read from write queue
system.mem_ctrl.bytesWritten                    17408                       # Total number of bytes written to DRAM
system.mem_ctrl.bytesReadSys                   499496                       # Total read bytes from the system interface side
system.mem_ctrl.bytesWrittenSys                 42955                       # Total written bytes from the system interface side
system.mem_ctrl.servicedByWrQ                    1480                       # Number of DRAM read bursts serviced by the write queue
system.mem_ctrl.mergedWrBursts                   6507                       # Number of DRAM write bursts merged with an existing one
system.mem_ctrl.neitherReadNorWriteReqs             0                       # Number of requests that are neither read nor write
system.mem_ctrl.perBankRdBursts::0              21162                       # Per bank write bursts
system.mem_ctrl.perBankRdBursts::1               1822                       # Per bank write bursts
system.mem_ctrl.perBankRdBursts::2                418                       # Per bank write bursts
system.mem_ctrl.perBankRdBursts::3                582                       # Per bank write bursts
system.mem_ctrl.perBankRdBursts::4                  2                       # Per bank write bursts
system.mem_ctrl.perBankRdBursts::5               3129                       # Per bank write bursts
system.mem_ctrl.perBankRdBursts::6               1406                       # Per bank write bursts
system.mem_ctrl.perBankRdBursts::7               6261                       # Per bank write bursts
system.mem_ctrl.perBankRdBursts::8              11156                       # Per bank write bursts
system.mem_ctrl.perBankRdBursts::9               2361                       # Per bank write bursts
system.mem_ctrl.perBankRdBursts::10             11958                       # Per bank write bursts
system.mem_ctrl.perBankRdBursts::11               659                       # Per bank write bursts
system.mem_ctrl.perBankRdBursts::12               965                       # Per bank write bursts
system.mem_ctrl.perBankRdBursts::13               948                       # Per bank write bursts
system.mem_ctrl.perBankRdBursts::14               557                       # Per bank write bursts
system.mem_ctrl.perBankRdBursts::15               656                       # Per bank write bursts
system.mem_ctrl.perBankWrBursts::0                  0                       # Per bank write bursts
system.mem_ctrl.perBankWrBursts::1                  0                       # Per bank write bursts
system.mem_ctrl.perBankWrBursts::2                  0                       # Per bank write bursts
system.mem_ctrl.perBankWrBursts::3                  0                       # Per bank write bursts
system.mem_ctrl.perBankWrBursts::4                  0                       # Per bank write bursts
system.mem_ctrl.perBankWrBursts::5                 61                       # Per bank write bursts
system.mem_ctrl.perBankWrBursts::6                 47                       # Per bank write bursts
system.mem_ctrl.perBankWrBursts::7                122                       # Per bank write bursts
system.mem_ctrl.perBankWrBursts::8                  6                       # Per bank write bursts
system.mem_ctrl.perBankWrBursts::9                 36                       # Per bank write bursts
system.mem_ctrl.perBankWrBursts::10                 0                       # Per bank write bursts
system.mem_ctrl.perBankWrBursts::11                 0                       # Per bank write bursts
system.mem_ctrl.perBankWrBursts::12                 0                       # Per bank write bursts
system.mem_ctrl.perBankWrBursts::13                 0                       # Per bank write bursts
system.mem_ctrl.perBankWrBursts::14                 0                       # Per bank write bursts
system.mem_ctrl.perBankWrBursts::15                 0                       # Per bank write bursts
system.mem_ctrl.numRdRetry                          0                       # Number of times read queue was full causing retry
system.mem_ctrl.numWrRetry                          0                       # Number of times write queue was full causing retry
system.mem_ctrl.totGap                     3933400000                       # Total gap between requests
system.mem_ctrl.readPktSize::0                    158                       # Read request sizes (log2)
system.mem_ctrl.readPktSize::1                     31                       # Read request sizes (log2)
system.mem_ctrl.readPktSize::2                   5846                       # Read request sizes (log2)
system.mem_ctrl.readPktSize::3                  59487                       # Read request sizes (log2)
system.mem_ctrl.readPktSize::4                      0                       # Read request sizes (log2)
system.mem_ctrl.readPktSize::5                      0                       # Read request sizes (log2)
system.mem_ctrl.readPktSize::6                      0                       # Read request sizes (log2)
system.mem_ctrl.writePktSize::0                   263                       # Write request sizes (log2)
system.mem_ctrl.writePktSize::1                    10                       # Write request sizes (log2)
system.mem_ctrl.writePktSize::2                  2396                       # Write request sizes (log2)
system.mem_ctrl.writePktSize::3                  4136                       # Write request sizes (log2)
system.mem_ctrl.writePktSize::4                     0                       # Write request sizes (log2)
system.mem_ctrl.writePktSize::5                     0                       # Write request sizes (log2)
system.mem_ctrl.writePktSize::6                     0                       # Write request sizes (log2)
system.mem_ctrl.rdQLenPdf::0                    64039                       # What read queue length does an incoming req see
system.mem_ctrl.rdQLenPdf::1                        3                       # What read queue length does an incoming req see
system.mem_ctrl.rdQLenPdf::2                        0                       # What read queue length does an incoming req see
system.mem_ctrl.rdQLenPdf::3                        0                       # What read queue length does an incoming req see
system.mem_ctrl.rdQLenPdf::4                        0                       # What read queue length does an incoming req see
system.mem_ctrl.rdQLenPdf::5                        0                       # What read queue length does an incoming req see
system.mem_ctrl.rdQLenPdf::6                        0                       # What read queue length does an incoming req see
system.mem_ctrl.rdQLenPdf::7                        0                       # What read queue length does an incoming req see
system.mem_ctrl.rdQLenPdf::8                        0                       # What read queue length does an incoming req see
system.mem_ctrl.rdQLenPdf::9                        0                       # What read queue length does an incoming req see
system.mem_ctrl.rdQLenPdf::10                       0                       # What read queue length does an incoming req see
system.mem_ctrl.rdQLenPdf::11                       0                       # What read queue length does an incoming req see
system.mem_ctrl.rdQLenPdf::12                       0                       # What read queue length does an incoming req see
system.mem_ctrl.rdQLenPdf::13                       0                       # What read queue length does an incoming req see
system.mem_ctrl.rdQLenPdf::14                       0                       # What read queue length does an incoming req see
system.mem_ctrl.rdQLenPdf::15                       0                       # What read queue length does an incoming req see
system.mem_ctrl.rdQLenPdf::16                       0                       # What read queue length does an incoming req see
system.mem_ctrl.rdQLenPdf::17                       0                       # What read queue length does an incoming req see
system.mem_ctrl.rdQLenPdf::18                       0                       # What read queue length does an incoming req see
system.mem_ctrl.rdQLenPdf::19                       0                       # What read queue length does an incoming req see
system.mem_ctrl.rdQLenPdf::20                       0                       # What read queue length does an incoming req see
system.mem_ctrl.rdQLenPdf::21                       0                       # What read queue length does an incoming req see
system.mem_ctrl.rdQLenPdf::22                       0                       # What read queue length does an incoming req see
system.mem_ctrl.rdQLenPdf::23                       0                       # What read queue length does an incoming req see
system.mem_ctrl.rdQLenPdf::24                       0                       # What read queue length does an incoming req see
system.mem_ctrl.rdQLenPdf::25                       0                       # What read queue length does an incoming req see
system.mem_ctrl.rdQLenPdf::26                       0                       # What read queue length does an incoming req see
system.mem_ctrl.rdQLenPdf::27                       0                       # What read queue length does an incoming req see
system.mem_ctrl.rdQLenPdf::28                       0                       # What read queue length does an incoming req see
system.mem_ctrl.rdQLenPdf::29                       0                       # What read queue length does an incoming req see
system.mem_ctrl.rdQLenPdf::30                       0                       # What read queue length does an incoming req see
system.mem_ctrl.rdQLenPdf::31                       0                       # What read queue length does an incoming req see
system.mem_ctrl.wrQLenPdf::0                        1                       # What write queue length does an incoming req see
system.mem_ctrl.wrQLenPdf::1                        1                       # What write queue length does an incoming req see
system.mem_ctrl.wrQLenPdf::2                        1                       # What write queue length does an incoming req see
system.mem_ctrl.wrQLenPdf::3                        1                       # What write queue length does an incoming req see
system.mem_ctrl.wrQLenPdf::4                        1                       # What write queue length does an incoming req see
system.mem_ctrl.wrQLenPdf::5                        1                       # What write queue length does an incoming req see
system.mem_ctrl.wrQLenPdf::6                        1                       # What write queue length does an incoming req see
system.mem_ctrl.wrQLenPdf::7                        1                       # What write queue length does an incoming req see
system.mem_ctrl.wrQLenPdf::8                        1                       # What write queue length does an incoming req see
system.mem_ctrl.wrQLenPdf::9                        1                       # What write queue length does an incoming req see
system.mem_ctrl.wrQLenPdf::10                       1                       # What write queue length does an incoming req see
system.mem_ctrl.wrQLenPdf::11                       1                       # What write queue length does an incoming req see
system.mem_ctrl.wrQLenPdf::12                       1                       # What write queue length does an incoming req see
system.mem_ctrl.wrQLenPdf::13                       1                       # What write queue length does an incoming req see
system.mem_ctrl.wrQLenPdf::14                       1                       # What write queue length does an incoming req see
system.mem_ctrl.wrQLenPdf::15                       1                       # What write queue length does an incoming req see
system.mem_ctrl.wrQLenPdf::16                       1                       # What write queue length does an incoming req see
system.mem_ctrl.wrQLenPdf::17                      18                       # What write queue length does an incoming req see
system.mem_ctrl.wrQLenPdf::18                      18                       # What write queue length does an incoming req see
system.mem_ctrl.wrQLenPdf::19                      18                       # What write queue length does an incoming req see
system.mem_ctrl.wrQLenPdf::20                      18                       # What write queue length does an incoming req see
system.mem_ctrl.wrQLenPdf::21                      18                       # What write queue length does an incoming req see
system.mem_ctrl.wrQLenPdf::22                      18                       # What write queue length does an incoming req see
system.mem_ctrl.wrQLenPdf::23                      18                       # What write queue length does an incoming req see
system.mem_ctrl.wrQLenPdf::24                      18                       # What write queue length does an incoming req see
system.mem_ctrl.wrQLenPdf::25                      18                       # What write queue length does an incoming req see
system.mem_ctrl.wrQLenPdf::26                      17                       # What write queue length does an incoming req see
system.mem_ctrl.wrQLenPdf::27                      17                       # What write queue length does an incoming req see
system.mem_ctrl.wrQLenPdf::28                      17                       # What write queue length does an incoming req see
system.mem_ctrl.wrQLenPdf::29                      17                       # What write queue length does an incoming req see
system.mem_ctrl.wrQLenPdf::30                      17                       # What write queue length does an incoming req see
system.mem_ctrl.wrQLenPdf::31                      17                       # What write queue length does an incoming req see
system.mem_ctrl.wrQLenPdf::32                      17                       # What write queue length does an incoming req see
system.mem_ctrl.wrQLenPdf::33                       0                       # What write queue length does an incoming req see
system.mem_ctrl.wrQLenPdf::34                       0                       # What write queue length does an incoming req see
system.mem_ctrl.wrQLenPdf::35                       0                       # What write queue length does an incoming req see
system.mem_ctrl.wrQLenPdf::36                       0                       # What write queue length does an incoming req see
system.mem_ctrl.wrQLenPdf::37                       0                       # What write queue length does an incoming req see
system.mem_ctrl.wrQLenPdf::38                       0                       # What write queue length does an incoming req see
system.mem_ctrl.wrQLenPdf::39                       0                       # What write queue length does an incoming req see
system.mem_ctrl.wrQLenPdf::40                       0                       # What write queue length does an incoming req see
system.mem_ctrl.wrQLenPdf::41                       0                       # What write queue length does an incoming req see
system.mem_ctrl.wrQLenPdf::42                       0                       # What write queue length does an incoming req see
system.mem_ctrl.wrQLenPdf::43                       0                       # What write queue length does an incoming req see
system.mem_ctrl.wrQLenPdf::44                       0                       # What write queue length does an incoming req see
system.mem_ctrl.wrQLenPdf::45                       0                       # What write queue length does an incoming req see
system.mem_ctrl.wrQLenPdf::46                       0                       # What write queue length does an incoming req see
system.mem_ctrl.wrQLenPdf::47                       0                       # What write queue length does an incoming req see
system.mem_ctrl.wrQLenPdf::48                       0                       # What write queue length does an incoming req see
system.mem_ctrl.wrQLenPdf::49                       0                       # What write queue length does an incoming req see
system.mem_ctrl.wrQLenPdf::50                       0                       # What write queue length does an incoming req see
system.mem_ctrl.wrQLenPdf::51                       0                       # What write queue length does an incoming req see
system.mem_ctrl.wrQLenPdf::52                       0                       # What write queue length does an incoming req see
system.mem_ctrl.wrQLenPdf::53                       0                       # What write queue length does an incoming req see
system.mem_ctrl.wrQLenPdf::54                       0                       # What write queue length does an incoming req see
system.mem_ctrl.wrQLenPdf::55                       0                       # What write queue length does an incoming req see
system.mem_ctrl.wrQLenPdf::56                       0                       # What write queue length does an incoming req see
system.mem_ctrl.wrQLenPdf::57                       0                       # What write queue length does an incoming req see
system.mem_ctrl.wrQLenPdf::58                       0                       # What write queue length does an incoming req see
system.mem_ctrl.wrQLenPdf::59                       0                       # What write queue length does an incoming req see
system.mem_ctrl.wrQLenPdf::60                       0                       # What write queue length does an incoming req see
system.mem_ctrl.wrQLenPdf::61                       0                       # What write queue length does an incoming req see
system.mem_ctrl.wrQLenPdf::62                       0                       # What write queue length does an incoming req see
system.mem_ctrl.wrQLenPdf::63                       0                       # What write queue length does an incoming req see
system.mem_ctrl.bytesPerActivate::samples         6062                       # Bytes accessed per row activation
system.mem_ctrl.bytesPerActivate::mean     678.725173                       # Bytes accessed per row activation
system.mem_ctrl.bytesPerActivate::gmean    481.522173                       # Bytes accessed per row activation
system.mem_ctrl.bytesPerActivate::stdev    386.332301                       # Bytes accessed per row activation
system.mem_ctrl.bytesPerActivate::0-127           892     14.71%     14.71% # Bytes accessed per row activation
system.mem_ctrl.bytesPerActivate::128-255          578      9.53%     24.25% # Bytes accessed per row activation
system.mem_ctrl.bytesPerActivate::256-383          236      3.89%     28.14% # Bytes accessed per row activation
system.mem_ctrl.bytesPerActivate::384-511          268      4.42%     32.56% # Bytes accessed per row activation
system.mem_ctrl.bytesPerActivate::512-639          457      7.54%     40.10% # Bytes accessed per row activation
system.mem_ctrl.bytesPerActivate::640-767          295      4.87%     44.97% # Bytes accessed per row activation
system.mem_ctrl.bytesPerActivate::768-895          304      5.01%     49.98% # Bytes accessed per row activation
system.mem_ctrl.bytesPerActivate::896-1023          244      4.03%     54.01% # Bytes accessed per row activation
system.mem_ctrl.bytesPerActivate::1024-1151         2788     45.99%    100.00% # Bytes accessed per row activation
system.mem_ctrl.bytesPerActivate::total          6062                       # Bytes accessed per row activation
system.mem_ctrl.rdPerTurnAround::samples           17                       # Reads before turning the bus around for writes
system.mem_ctrl.rdPerTurnAround::mean     3743.647059                       # Reads before turning the bus around for writes
system.mem_ctrl.rdPerTurnAround::gmean    1006.472373                       # Reads before turning the bus around for writes
system.mem_ctrl.rdPerTurnAround::stdev   11574.505146                       # Reads before turning the bus around for writes
system.mem_ctrl.rdPerTurnAround::0-2047            15     88.24%     88.24% # Reads before turning the bus around for writes
system.mem_ctrl.rdPerTurnAround::2048-4095            1      5.88%     94.12% # Reads before turning the bus around for writes
system.mem_ctrl.rdPerTurnAround::47104-49151            1      5.88%    100.00% # Reads before turning the bus around for writes
system.mem_ctrl.rdPerTurnAround::total             17                       # Reads before turning the bus around for writes
system.mem_ctrl.wrPerTurnAround::samples           17                       # Writes before turning the bus around for reads
system.mem_ctrl.wrPerTurnAround::mean              16                       # Writes before turning the bus around for reads
system.mem_ctrl.wrPerTurnAround::gmean      16.000000                       # Writes before turning the bus around for reads
system.mem_ctrl.wrPerTurnAround::16                17    100.00%    100.00% # Writes before turning the bus around for reads
system.mem_ctrl.wrPerTurnAround::total             17                       # Writes before turning the bus around for reads
system.mem_ctrl.masterReadBytes::.cpu.inst       428392                       # Per-master bytes read from memory
system.mem_ctrl.masterReadBytes::.cpu.data        62479                       # Per-master bytes read from memory
system.mem_ctrl.masterWriteBytes::.cpu.data         1831                       # Per-master bytes write to memory
system.mem_ctrl.masterReadRate::.cpu.inst 108909242.382757022977                       # Per-master bytes read from memory rate (Bytes/sec)
system.mem_ctrl.masterReadRate::.cpu.data 15883911.358830874786                       # Per-master bytes read from memory rate (Bytes/sec)
system.mem_ctrl.masterWriteRate::.cpu.data 465491.472303003131                       # Per-master bytes write to memory rate (Bytes/sec)
system.mem_ctrl.masterReadAccesses::.cpu.inst        53549                       # Per-master read serviced memory accesses
system.mem_ctrl.masterReadAccesses::.cpu.data        11973                       # Per-master read serviced memory accesses
system.mem_ctrl.masterWriteAccesses::.cpu.data         6805                       # Per-master write serviced memory accesses
system.mem_ctrl.masterReadTotalLat::.cpu.inst   1490783000                       # Per-master read total memory access latency
system.mem_ctrl.masterReadTotalLat::.cpu.data    331558500                       # Per-master read total memory access latency
system.mem_ctrl.masterWriteTotalLat::.cpu.data  59815970250                       # Per-master write total memory access latency
system.mem_ctrl.masterReadAvgLat::.cpu.inst     27839.60                       # Per-master read average memory access latency
system.mem_ctrl.masterReadAvgLat::.cpu.data     27692.18                       # Per-master read average memory access latency
system.mem_ctrl.masterWriteAvgLat::.cpu.data   8790002.98                       # Per-master write average memory access latency
system.mem_ctrl.totQLat                     621554000                       # Total ticks spent queuing
system.mem_ctrl.totMemAccLat               1822341500                       # Total ticks spent from burst creation until serviced by the DRAM
system.mem_ctrl.totBusLat                   320210000                       # Total ticks spent in databus transfers
system.mem_ctrl.avgQLat                       9705.41                       # Average queueing delay per DRAM burst
system.mem_ctrl.avgBusLat                     5000.00                       # Average bus latency per DRAM burst
system.mem_ctrl.avgMemAccLat                 28455.41                       # Average memory access latency per DRAM burst
system.mem_ctrl.avgRdBW                       1042.00                       # Average DRAM read bandwidth in MiByte/s
system.mem_ctrl.avgWrBW                          4.43                       # Average achieved write bandwidth in MiByte/s
system.mem_ctrl.avgRdBWSys                     126.99                       # Average system read bandwidth in MiByte/s
system.mem_ctrl.avgWrBWSys                      10.92                       # Average system write bandwidth in MiByte/s
system.mem_ctrl.peakBW                       12800.00                       # Theoretical peak bandwidth in MiByte/s
system.mem_ctrl.busUtil                          8.18                       # Data bus utilization in percentage
system.mem_ctrl.busUtilRead                      8.14                       # Data bus utilization in percentage for reads
system.mem_ctrl.busUtilWrite                     0.03                       # Data bus utilization in percentage for writes
system.mem_ctrl.avgRdQLen                        1.00                       # Average read queue length when enqueuing
system.mem_ctrl.avgWrQLen                       26.13                       # Average write queue length when enqueuing
system.mem_ctrl.readRowHits                     58001                       # Number of row buffer hits during reads
system.mem_ctrl.writeRowHits                      248                       # Number of row buffer hits during writes
system.mem_ctrl.readRowHitRate                  90.57                       # Row buffer hit rate for reads
system.mem_ctrl.writeRowHitRate                 83.22                       # Row buffer hit rate for writes
system.mem_ctrl.avgGap                       54383.56                       # Average gap between requests
system.mem_ctrl.pageHitRate                     90.53                       # Row buffer hit rate, read and write combined
system.mem_ctrl_0.actEnergy                  25175640                       # Energy for activate commands per rank (pJ)
system.mem_ctrl_0.preEnergy                  13377375                       # Energy for precharge commands per rank (pJ)
system.mem_ctrl_0.readEnergy                248343480                       # Energy for read commands per rank (pJ)
system.mem_ctrl_0.writeEnergy                 1200600                       # Energy for write commands per rank (pJ)
system.mem_ctrl_0.refreshEnergy          309163920.000000                       # Energy for refresh commands per rank (pJ)
system.mem_ctrl_0.actBackEnergy             495328290                       # Energy for active background per rank (pJ)
system.mem_ctrl_0.preBackEnergy               7389600                       # Energy for precharge background per rank (pJ)
system.mem_ctrl_0.actPowerDownEnergy       1258047000                       # Energy for active power-down per rank (pJ)
system.mem_ctrl_0.prePowerDownEnergy         20608800                       # Energy for precharge power-down per rank (pJ)
system.mem_ctrl_0.selfRefreshEnergy           4810980                       # Energy for self refresh per rank (pJ)
system.mem_ctrl_0.totalEnergy              2383525065                       # Total energy per rank (pJ)
system.mem_ctrl_0.averagePower             605.958816                       # Core power per rank (mW)
system.mem_ctrl_0.totalIdleTime            2827712250                       # Total Idle time Per DRAM Rank
system.mem_ctrl_0.memoryStateTime::IDLE       3636000                       # Time in different power states
system.mem_ctrl_0.memoryStateTime::REF      130780000                       # Time in different power states
system.mem_ctrl_0.memoryStateTime::SREF      15266250                       # Time in different power states
system.mem_ctrl_0.memoryStateTime::PRE_PDN     53700000                       # Time in different power states
system.mem_ctrl_0.memoryStateTime::ACT      970788500                       # Time in different power states
system.mem_ctrl_0.memoryStateTime::ACT_PDN   2759306250                       # Time in different power states
system.mem_ctrl_1.actEnergy                  18128460                       # Energy for activate commands per rank (pJ)
system.mem_ctrl_1.preEnergy                   9627915                       # Energy for precharge commands per rank (pJ)
system.mem_ctrl_1.readEnergy                208909260                       # Energy for read commands per rank (pJ)
system.mem_ctrl_1.writeEnergy                  219240                       # Energy for write commands per rank (pJ)
system.mem_ctrl_1.refreshEnergy          205289760.000000                       # Energy for refresh commands per rank (pJ)
system.mem_ctrl_1.actBackEnergy             411501810                       # Energy for active background per rank (pJ)
system.mem_ctrl_1.preBackEnergy              11914560                       # Energy for precharge background per rank (pJ)
system.mem_ctrl_1.actPowerDownEnergy        698802330                       # Energy for active power-down per rank (pJ)
system.mem_ctrl_1.prePowerDownEnergy         55460160                       # Energy for precharge power-down per rank (pJ)
system.mem_ctrl_1.selfRefreshEnergy         323077200                       # Energy for self refresh per rank (pJ)
system.mem_ctrl_1.totalEnergy              1942930695                       # Total energy per rank (pJ)
system.mem_ctrl_1.averagePower             493.947389                       # Core power per rank (mW)
system.mem_ctrl_1.totalIdleTime            2999646000                       # Total Idle time Per DRAM Rank
system.mem_ctrl_1.memoryStateTime::IDLE      14182250                       # Time in different power states
system.mem_ctrl_1.memoryStateTime::REF       86840000                       # Time in different power states
system.mem_ctrl_1.memoryStateTime::SREF    1323147500                       # Time in different power states
system.mem_ctrl_1.memoryStateTime::PRE_PDN    144444500                       # Time in different power states
system.mem_ctrl_1.memoryStateTime::ACT      832808750                       # Time in different power states
system.mem_ctrl_1.memoryStateTime::ACT_PDN   1532054000                       # Time in different power states
system.pwrStateResidencyTicks::UNDEFINED   3933477000                       # Cumulative time (in ticks) in various power states
system.cpu.dtb.walker.pwrStateResidencyTicks::UNDEFINED   3933477000                       # Cumulative time (in ticks) in various power states
system.cpu.dtb.rdAccesses                       11973                       # TLB accesses on read requests
system.cpu.dtb.wrAccesses                        6805                       # TLB accesses on write requests
system.cpu.dtb.rdMisses                            14                       # TLB misses on read requests
system.cpu.dtb.wrMisses                             8                       # TLB misses on write requests
system.cpu.apic_clk_domain.clock                16000                       # Clock period in ticks
system.cpu.interrupts.pwrStateResidencyTicks::UNDEFINED   3933477000                       # Cumulative time (in ticks) in various power states
system.cpu.itb.walker.pwrStateResidencyTicks::UNDEFINED   3933477000                       # Cumulative time (in ticks) in various power states
system.cpu.itb.rdAccesses                           0                       # TLB accesses on read requests
system.cpu.itb.wrAccesses                       53549                       # TLB accesses on write requests
system.cpu.itb.rdMisses                             0                       # TLB misses on read requests
system.cpu.itb.wrMisses                            49                       # TLB misses on write requests
system.cpu.workload.numSyscalls                    21                       # Number of system calls
system.cpu.pwrStateResidencyTicks::ON      3933477000                       # Cumulative time (in ticks) in various power states
system.cpu.numCycles                          3933477                       # number of cpu cycles simulated
system.cpu.numWorkItemsStarted                      0                       # number of work items this cpu started
system.cpu.numWorkItemsCompleted                    0                       # number of work items this cpu completed
system.cpu.committedInsts                       41261                       # Number of instructions committed
system.cpu.committedOps                         89061                       # Number of ops (including micro ops) committed
system.cpu.num_int_alu_accesses                 88617                       # Number of integer alu accesses
system.cpu.num_fp_alu_accesses                    542                       # Number of float alu accesses
system.cpu.num_vec_alu_accesses                     0                       # Number of vector alu accesses
system.cpu.num_func_calls                        1383                       # number of times a function call or return occured
system.cpu.num_conditional_control_insts         8572                       # number of instructions that are conditional controls
system.cpu.num_int_insts                        88617                       # number of integer instructions
system.cpu.num_fp_insts                           542                       # number of float instructions
system.cpu.num_vec_insts                            0                       # number of vector instructions
system.cpu.num_int_register_reads              162447                       # number of times the integer registers were read
system.cpu.num_int_register_writes              71204                       # number of times the integer registers were written
system.cpu.num_fp_register_reads                  802                       # number of times the floating registers were read
system.cpu.num_fp_register_writes                 328                       # number of times the floating registers were written
system.cpu.num_vec_register_reads                   0                       # number of times the vector registers were read
system.cpu.num_vec_register_writes                  0                       # number of times the vector registers were written
system.cpu.num_cc_register_reads                50035                       # number of times the CC registers were read
system.cpu.num_cc_register_writes               29249                       # number of times the CC registers were written
system.cpu.num_mem_refs                         18775                       # number of memory refs
system.cpu.num_load_insts                       11970                       # Number of load instructions
system.cpu.num_store_insts                       6805                       # Number of store instructions
system.cpu.num_idle_cycles                          0                       # Number of idle cycles
system.cpu.num_busy_cycles                    3933477                       # Number of busy cycles
system.cpu.not_idle_fraction                        1                       # Percentage of non-idle cycles
system.cpu.idle_fraction                            0                       # Percentage of idle cycles
system.cpu.Branches                             10643                       # Number of branches fetched
system.cpu.op_class::No_OpClass                    71      0.08%      0.08% # Class of executed instruction
system.cpu.op_class::IntAlu                     69855     78.44%     78.51% # Class of executed instruction
system.cpu.op_class::IntMult                       13      0.01%     78.53% # Class of executed instruction
system.cpu.op_class::IntDiv                        35      0.04%     78.57% # Class of executed instruction
system.cpu.op_class::FloatAdd                      12      0.01%     78.58% # Class of executed instruction
system.cpu.op_class::FloatCmp                       0      0.00%     78.58% # Class of executed instruction
system.cpu.op_class::FloatCvt                       0      0.00%     78.58% # Class of executed instruction
system.cpu.op_class::FloatMult                      0      0.00%     78.58% # Class of executed instruction
system.cpu.op_class::FloatMultAcc                   0      0.00%     78.58% # Class of executed instruction
system.cpu.op_class::FloatDiv                       0      0.00%     78.58% # Class of executed instruction
system.cpu.op_class::FloatMisc                      0      0.00%     78.58% # Class of executed instruction
system.cpu.op_class::FloatSqrt                      0      0.00%     78.58% # Class of executed instruction
system.cpu.op_class::SimdAdd                        0      0.00%     78.58% # Class of executed instruction
system.cpu.op_class::SimdAddAcc                     0      0.00%     78.58% # Class of executed instruction
system.cpu.op_class::SimdAlu                       86      0.10%     78.68% # Class of executed instruction
system.cpu.op_class::SimdCmp                        0      0.00%     78.68% # Class of executed instruction
system.cpu.op_class::SimdCvt                       68      0.08%     78.76% # Class of executed instruction
system.cpu.op_class::SimdMisc                     146      0.16%     78.92% # Class of executed instruction
system.cpu.op_class::SimdMult                       0      0.00%     78.92% # Class of executed instruction
system.cpu.op_class::SimdMultAcc                    0      0.00%     78.92% # Class of executed instruction
system.cpu.op_class::SimdShift                      0      0.00%     78.92% # Class of executed instruction
system.cpu.op_class::SimdShiftAcc                   0      0.00%     78.92% # Class of executed instruction
system.cpu.op_class::SimdSqrt                       0      0.00%     78.92% # Class of executed instruction
system.cpu.op_class::SimdFloatAdd                   0      0.00%     78.92% # Class of executed instruction
system.cpu.op_class::SimdFloatAlu                   0      0.00%     78.92% # Class of executed instruction
system.cpu.op_class::SimdFloatCmp                   0      0.00%     78.92% # Class of executed instruction
system.cpu.op_class::SimdFloatCvt                   0      0.00%     78.92% # Class of executed instruction
system.cpu.op_class::SimdFloatDiv                   0      0.00%     78.92% # Class of executed instruction
system.cpu.op_class::SimdFloatMisc                  0      0.00%     78.92% # Class of executed instruction
system.cpu.op_class::SimdFloatMult                  0      0.00%     78.92% # Class of executed instruction
system.cpu.op_class::SimdFloatMultAcc               0      0.00%     78.92% # Class of executed instruction
system.cpu.op_class::SimdFloatSqrt                  0      0.00%     78.92% # Class of executed instruction
system.cpu.op_class::MemRead                    11920     13.38%     92.30% # Class of executed instruction
system.cpu.op_class::MemWrite                    6653      7.47%     99.77% # Class of executed instruction
system.cpu.op_class::FloatMemRead                  50      0.06%     99.83% # Class of executed instruction
system.cpu.op_class::FloatMemWrite                152      0.17%    100.00% # Class of executed instruction
system.cpu.op_class::IprAccess                      0      0.00%    100.00% # Class of executed instruction
system.cpu.op_class::InstPrefetch                   0      0.00%    100.00% # Class of executed instruction
system.cpu.op_class::total                      89061                       # Class of executed instruction
system.membus.snoop_filter.tot_requests             0                       # Total number of requests made to the snoop filter.
system.membus.snoop_filter.hit_single_requests            0                       # Number of requests hitting in the snoop filter with a single holder of the requested data.
system.membus.snoop_filter.hit_multi_requests            0                       # Number of requests hitting in the snoop filter with multiple (>1) holders of the requested data.
system.membus.snoop_filter.tot_snoops               0                       # Total number of snoops made to the snoop filter.
system.membus.snoop_filter.hit_single_snoops            0                       # Number of snoops hitting in the snoop filter with a single holder of the requested data.
system.membus.snoop_filter.hit_multi_snoops            0                       # Number of snoops hitting in the snoop filter with multiple (>1) holders of the requested data.
system.membus.pwrStateResidencyTicks::UNDEFINED   3933477000                       # Cumulative time (in ticks) in various power states
system.membus.trans_dist::ReadReq               65522                       # Transaction distribution
system.membus.trans_dist::ReadResp              65521                       # Transaction distribution
system.membus.trans_dist::WriteReq               6805                       # Transaction distribution
system.membus.trans_dist::WriteResp              6805                       # Transaction distribution
system.membus.pkt_count_system.cpu.icache_port::system.mem_ctrl.port       107097                       # Packet count per connected master and slave (bytes)
system.membus.pkt_count_system.cpu.icache_port::total       107097                       # Packet count per connected master and slave (bytes)
system.membus.pkt_count_system.cpu.dcache_port::system.mem_ctrl.port        37556                       # Packet count per connected master and slave (bytes)
system.membus.pkt_count_system.cpu.dcache_port::total        37556                       # Packet count per connected master and slave (bytes)
system.membus.pkt_count::total                 144653                       # Packet count per connected master and slave (bytes)
system.membus.pkt_size_system.cpu.icache_port::system.mem_ctrl.port       428384                       # Cumulative packet size per connected master and slave (bytes)
system.membus.pkt_size_system.cpu.icache_port::total       428384                       # Cumulative packet size per connected master and slave (bytes)
system.membus.pkt_size_system.cpu.dcache_port::system.mem_ctrl.port       114059                       # Cumulative packet size per connected master and slave (bytes)
system.membus.pkt_size_system.cpu.dcache_port::total       114059                       # Cumulative packet size per connected master and slave (bytes)
system.membus.pkt_size::total                  542443                       # Cumulative packet size per connected master and slave (bytes)
system.membus.snoops                                0                       # Total snoops (count)
system.membus.snoopTraffic                          0                       # Total snoop traffic (bytes)
system.membus.snoop_fanout::samples             72327                       # Request fanout histogram
system.membus.snoop_fanout::mean                    0                       # Request fanout histogram
system.membus.snoop_fanout::stdev                   0                       # Request fanout histogram
system.membus.snoop_fanout::underflows              0      0.00%      0.00% # Request fanout histogram
system.membus.snoop_fanout::0                   72327    100.00%    100.00% # Request fanout histogram
system.membus.snoop_fanout::1                       0      0.00%    100.00% # Request fanout histogram
system.membus.snoop_fanout::overflows               0      0.00%    100.00% # Request fanout histogram
system.membus.snoop_fanout::min_value               0                       # Request fanout histogram
system.membus.snoop_fanout::max_value               0                       # Request fanout histogram
system.membus.snoop_fanout::total               72327                       # Request fanout histogram
system.membus.reqLayer2.occupancy            79132000                       # Layer occupancy (ticks)
system.membus.reqLayer2.utilization               2.0                       # Layer utilization (%)
system.membus.respLayer0.occupancy          121541750                       # Layer occupancy (ticks)
system.membus.respLayer0.utilization              3.1                       # Layer utilization (%)
system.membus.respLayer1.occupancy           33906500                       # Layer occupancy (ticks)
system.membus.respLayer1.utilization              0.9                       # Layer utilization (%)

---------- End Simulation Statistics   ----------
