
---------- Begin Simulation Statistics ----------
sim_seconds                                  0.000947                       # Number of seconds simulated
sim_ticks                                   947095000                       # Number of ticks simulated
final_tick                                  947095000                       # Number of ticks from beginning of simulation (restored from checkpoints and never reset)
sim_freq                                 1000000000000                       # Frequency of simulated ticks
host_inst_rate                                 105754                       # Simulator instruction rate (inst/s)
host_op_rate                                   203833                       # Simulator op (including micro ops) rate (op/s)
host_tick_rate                             9785327321                       # Simulator tick rate (ticks/s)
host_mem_usage                                 787996                       # Number of bytes of host memory used
host_seconds                                     0.10                       # Real time elapsed on the host
sim_insts                                       10233                       # Number of instructions simulated
sim_ops                                         19726                       # Number of ops (including micro ops) simulated
system.clk_domain.voltage_domain.voltage            1                       # Voltage in Volts
system.clk_domain.clock                          1000                       # Clock period in ticks
system.mem_ctrl.pwrStateResidencyTicks::UNDEFINED    947095000                       # Cumulative time (in ticks) in various power states
system.mem_ctrl.bytes_read::.cpu.inst          107584                       # Number of bytes read from this memory
system.mem_ctrl.bytes_read::.cpu.data           14171                       # Number of bytes read from this memory
system.mem_ctrl.bytes_read::total              121755                       # Number of bytes read from this memory
system.mem_ctrl.bytes_inst_read::.cpu.inst       107584                       # Number of instructions bytes read from this memory
system.mem_ctrl.bytes_inst_read::total         107584                       # Number of instructions bytes read from this memory
system.mem_ctrl.bytes_written::.cpu.data        14478                       # Number of bytes written to this memory
system.mem_ctrl.bytes_written::total            14478                       # Number of bytes written to this memory
system.mem_ctrl.num_reads::.cpu.inst            13448                       # Number of read requests responded to by this memory
system.mem_ctrl.num_reads::.cpu.data             2039                       # Number of read requests responded to by this memory
system.mem_ctrl.num_reads::total                15487                       # Number of read requests responded to by this memory
system.mem_ctrl.num_writes::.cpu.data            1963                       # Number of write requests responded to by this memory
system.mem_ctrl.num_writes::total                1963                       # Number of write requests responded to by this memory
system.mem_ctrl.bw_read::.cpu.inst          113593673                       # Total read bandwidth from this memory (bytes/s)
system.mem_ctrl.bw_read::.cpu.data           14962596                       # Total read bandwidth from this memory (bytes/s)
system.mem_ctrl.bw_read::total              128556269                       # Total read bandwidth from this memory (bytes/s)
system.mem_ctrl.bw_inst_read::.cpu.inst     113593673                       # Instruction read bandwidth from this memory (bytes/s)
system.mem_ctrl.bw_inst_read::total         113593673                       # Instruction read bandwidth from this memory (bytes/s)
system.mem_ctrl.bw_write::.cpu.data          15286745                       # Write bandwidth from this memory (bytes/s)
system.mem_ctrl.bw_write::total              15286745                       # Write bandwidth from this memory (bytes/s)
system.mem_ctrl.bw_total::.cpu.inst         113593673                       # Total bandwidth to/from this memory (bytes/s)
system.mem_ctrl.bw_total::.cpu.data          30249341                       # Total bandwidth to/from this memory (bytes/s)
system.mem_ctrl.bw_total::total             143843015                       # Total bandwidth to/from this memory (bytes/s)
system.mem_ctrl.avgPriority_.cpu.inst::samples     13449.00                       # Average QoS priority value for accepted requests
system.mem_ctrl.avgPriority_.cpu.data::samples      2022.00                       # Average QoS priority value for accepted requests
system.mem_ctrl.priorityMinLatency       0.000000018750                       # per QoS priority minimum request to response latency (s)
system.mem_ctrl.priorityMaxLatency       0.000674900750                       # per QoS priority maximum request to response latency (s)
system.mem_ctrl.numReadWriteTurnArounds            14                       # Number of turnarounds from READ to WRITE
system.mem_ctrl.numWriteReadTurnArounds            14                       # Number of turnarounds from WRITE to READ
system.mem_ctrl.numStayReadState                32582                       # Number of times bus staying in READ state
system.mem_ctrl.numStayWriteState                 215                       # Number of times bus staying in WRITE state
system.mem_ctrl.readReqs                        15488                       # Number of read requests accepted
system.mem_ctrl.writeReqs                        1963                       # Number of write requests accepted
system.mem_ctrl.readBursts                      15488                       # Number of DRAM read bursts, including those serviced by the write queue
system.mem_ctrl.writeBursts                      1963                       # Number of DRAM write bursts, including those merged in the write queue
system.mem_ctrl.bytesReadDRAM                  973952                       # Total number of bytes read from DRAM
system.mem_ctrl.bytesReadWrQ                    17280                       # Total number of bytes read from write queue
system.mem_ctrl.bytesWritten                    14336                       # Total number of bytes written to DRAM
system.mem_ctrl.bytesReadSys                   121763                       # Total read bytes from the system interface side
system.mem_ctrl.bytesWrittenSys                 14478                       # Total written bytes from the system interface side
system.mem_ctrl.servicedByWrQ                     270                       # Number of DRAM read bursts serviced by the write queue
system.mem_ctrl.mergedWrBursts                   1710                       # Number of DRAM write bursts merged with an existing one
system.mem_ctrl.neitherReadNorWriteReqs             0                       # Number of requests that are neither read nor write
system.mem_ctrl.perBankRdBursts::0               3097                       # Per bank write bursts
system.mem_ctrl.perBankRdBursts::1               1333                       # Per bank write bursts
system.mem_ctrl.perBankRdBursts::2                282                       # Per bank write bursts
system.mem_ctrl.perBankRdBursts::3                437                       # Per bank write bursts
system.mem_ctrl.perBankRdBursts::4                  0                       # Per bank write bursts
system.mem_ctrl.perBankRdBursts::5                281                       # Per bank write bursts
system.mem_ctrl.perBankRdBursts::6                321                       # Per bank write bursts
system.mem_ctrl.perBankRdBursts::7               1420                       # Per bank write bursts
system.mem_ctrl.perBankRdBursts::8                246                       # Per bank write bursts
system.mem_ctrl.perBankRdBursts::9               1354                       # Per bank write bursts
system.mem_ctrl.perBankRdBursts::10               795                       # Per bank write bursts
system.mem_ctrl.perBankRdBursts::11               571                       # Per bank write bursts
system.mem_ctrl.perBankRdBursts::12              3062                       # Per bank write bursts
system.mem_ctrl.perBankRdBursts::13              1239                       # Per bank write bursts
system.mem_ctrl.perBankRdBursts::14               370                       # Per bank write bursts
system.mem_ctrl.perBankRdBursts::15               410                       # Per bank write bursts
system.mem_ctrl.perBankWrBursts::0                  0                       # Per bank write bursts
system.mem_ctrl.perBankWrBursts::1                  0                       # Per bank write bursts
system.mem_ctrl.perBankWrBursts::2                  0                       # Per bank write bursts
system.mem_ctrl.perBankWrBursts::3                  0                       # Per bank write bursts
system.mem_ctrl.perBankWrBursts::4                  0                       # Per bank write bursts
system.mem_ctrl.perBankWrBursts::5                 52                       # Per bank write bursts
system.mem_ctrl.perBankWrBursts::6                 33                       # Per bank write bursts
system.mem_ctrl.perBankWrBursts::7                 94                       # Per bank write bursts
system.mem_ctrl.perBankWrBursts::8                  5                       # Per bank write bursts
system.mem_ctrl.perBankWrBursts::9                 40                       # Per bank write bursts
system.mem_ctrl.perBankWrBursts::10                 0                       # Per bank write bursts
system.mem_ctrl.perBankWrBursts::11                 0                       # Per bank write bursts
system.mem_ctrl.perBankWrBursts::12                 0                       # Per bank write bursts
system.mem_ctrl.perBankWrBursts::13                 0                       # Per bank write bursts
system.mem_ctrl.perBankWrBursts::14                 0                       # Per bank write bursts
system.mem_ctrl.perBankWrBursts::15                 0                       # Per bank write bursts
system.mem_ctrl.numRdRetry                          0                       # Number of times read queue was full causing retry
system.mem_ctrl.numWrRetry                          0                       # Number of times write queue was full causing retry
system.mem_ctrl.totGap                      947018000                       # Total gap between requests
system.mem_ctrl.readPktSize::0                    107                       # Read request sizes (log2)
system.mem_ctrl.readPktSize::1                     16                       # Read request sizes (log2)
system.mem_ctrl.readPktSize::2                    323                       # Read request sizes (log2)
system.mem_ctrl.readPktSize::3                  15042                       # Read request sizes (log2)
system.mem_ctrl.readPktSize::4                      0                       # Read request sizes (log2)
system.mem_ctrl.readPktSize::5                      0                       # Read request sizes (log2)
system.mem_ctrl.readPktSize::6                      0                       # Read request sizes (log2)
system.mem_ctrl.writePktSize::0                    50                       # Write request sizes (log2)
system.mem_ctrl.writePktSize::1                     6                       # Write request sizes (log2)
system.mem_ctrl.writePktSize::2                   210                       # Write request sizes (log2)
system.mem_ctrl.writePktSize::3                  1697                       # Write request sizes (log2)
system.mem_ctrl.writePktSize::4                     0                       # Write request sizes (log2)
system.mem_ctrl.writePktSize::5                     0                       # Write request sizes (log2)
system.mem_ctrl.writePktSize::6                     0                       # Write request sizes (log2)
system.mem_ctrl.rdQLenPdf::0                    15215                       # What read queue length does an incoming req see
system.mem_ctrl.rdQLenPdf::1                        3                       # What read queue length does an incoming req see
system.mem_ctrl.rdQLenPdf::2                        0                       # What read queue length does an incoming req see
system.mem_ctrl.rdQLenPdf::3                        0                       # What read queue length does an incoming req see
system.mem_ctrl.rdQLenPdf::4                        0                       # What read queue length does an incoming req see
system.mem_ctrl.rdQLenPdf::5                        0                       # What read queue length does an incoming req see
system.mem_ctrl.rdQLenPdf::6                        0                       # What read queue length does an incoming req see
system.mem_ctrl.rdQLenPdf::7                        0                       # What read queue length does an incoming req see
system.mem_ctrl.rdQLenPdf::8                        0                       # What read queue length does an incoming req see
system.mem_ctrl.rdQLenPdf::9                        0                       # What read queue length does an incoming req see
system.mem_ctrl.rdQLenPdf::10                       0                       # What read queue length does an incoming req see
system.mem_ctrl.rdQLenPdf::11                       0                       # What read queue length does an incoming req see
system.mem_ctrl.rdQLenPdf::12                       0                       # What read queue length does an incoming req see
system.mem_ctrl.rdQLenPdf::13                       0                       # What read queue length does an incoming req see
system.mem_ctrl.rdQLenPdf::14                       0                       # What read queue length does an incoming req see
system.mem_ctrl.rdQLenPdf::15                       0                       # What read queue length does an incoming req see
system.mem_ctrl.rdQLenPdf::16                       0                       # What read queue length does an incoming req see
system.mem_ctrl.rdQLenPdf::17                       0                       # What read queue length does an incoming req see
system.mem_ctrl.rdQLenPdf::18                       0                       # What read queue length does an incoming req see
system.mem_ctrl.rdQLenPdf::19                       0                       # What read queue length does an incoming req see
system.mem_ctrl.rdQLenPdf::20                       0                       # What read queue length does an incoming req see
system.mem_ctrl.rdQLenPdf::21                       0                       # What read queue length does an incoming req see
system.mem_ctrl.rdQLenPdf::22                       0                       # What read queue length does an incoming req see
system.mem_ctrl.rdQLenPdf::23                       0                       # What read queue length does an incoming req see
system.mem_ctrl.rdQLenPdf::24                       0                       # What read queue length does an incoming req see
system.mem_ctrl.rdQLenPdf::25                       0                       # What read queue length does an incoming req see
system.mem_ctrl.rdQLenPdf::26                       0                       # What read queue length does an incoming req see
system.mem_ctrl.rdQLenPdf::27                       0                       # What read queue length does an incoming req see
system.mem_ctrl.rdQLenPdf::28                       0                       # What read queue length does an incoming req see
system.mem_ctrl.rdQLenPdf::29                       0                       # What read queue length does an incoming req see
system.mem_ctrl.rdQLenPdf::30                       0                       # What read queue length does an incoming req see
system.mem_ctrl.rdQLenPdf::31                       0                       # What read queue length does an incoming req see
system.mem_ctrl.wrQLenPdf::0                        1                       # What write queue length does an incoming req see
system.mem_ctrl.wrQLenPdf::1                        1                       # What write queue length does an incoming req see
system.mem_ctrl.wrQLenPdf::2                        1                       # What write queue length does an incoming req see
system.mem_ctrl.wrQLenPdf::3                        1                       # What write queue length does an incoming req see
system.mem_ctrl.wrQLenPdf::4                        1                       # What write queue length does an incoming req see
system.mem_ctrl.wrQLenPdf::5                        1                       # What write queue length does an incoming req see
system.mem_ctrl.wrQLenPdf::6                        1                       # What write queue length does an incoming req see
system.mem_ctrl.wrQLenPdf::7                        1                       # What write queue length does an incoming req see
system.mem_ctrl.wrQLenPdf::8                        1                       # What write queue length does an incoming req see
system.mem_ctrl.wrQLenPdf::9                        1                       # What write queue length does an incoming req see
system.mem_ctrl.wrQLenPdf::10                       1                       # What write queue length does an incoming req see
system.mem_ctrl.wrQLenPdf::11                       1                       # What write queue length does an incoming req see
system.mem_ctrl.wrQLenPdf::12                       1                       # What write queue length does an incoming req see
system.mem_ctrl.wrQLenPdf::13                       1                       # What write queue length does an incoming req see
system.mem_ctrl.wrQLenPdf::14                       1                       # What write queue length does an incoming req see
system.mem_ctrl.wrQLenPdf::15                       1                       # What write queue length does an incoming req see
system.mem_ctrl.wrQLenPdf::16                       1                       # What write queue length does an incoming req see
system.mem_ctrl.wrQLenPdf::17                      15                       # What write queue length does an incoming req see
system.mem_ctrl.wrQLenPdf::18                      15                       # What write queue length does an incoming req see
system.mem_ctrl.wrQLenPdf::19                      15                       # What write queue length does an incoming req see
system.mem_ctrl.wrQLenPdf::20                      15                       # What write queue length does an incoming req see
system.mem_ctrl.wrQLenPdf::21                      15                       # What write queue length does an incoming req see
system.mem_ctrl.wrQLenPdf::22                      15                       # What write queue length does an incoming req see
system.mem_ctrl.wrQLenPdf::23                      15                       # What write queue length does an incoming req see
system.mem_ctrl.wrQLenPdf::24                      15                       # What write queue length does an incoming req see
system.mem_ctrl.wrQLenPdf::25                      15                       # What write queue length does an incoming req see
system.mem_ctrl.wrQLenPdf::26                      15                       # What write queue length does an incoming req see
system.mem_ctrl.wrQLenPdf::27                      15                       # What write queue length does an incoming req see
system.mem_ctrl.wrQLenPdf::28                      15                       # What write queue length does an incoming req see
system.mem_ctrl.wrQLenPdf::29                      14                       # What write queue length does an incoming req see
system.mem_ctrl.wrQLenPdf::30                      14                       # What write queue length does an incoming req see
system.mem_ctrl.wrQLenPdf::31                      14                       # What write queue length does an incoming req see
system.mem_ctrl.wrQLenPdf::32                      14                       # What write queue length does an incoming req see
system.mem_ctrl.wrQLenPdf::33                       0                       # What write queue length does an incoming req see
system.mem_ctrl.wrQLenPdf::34                       0                       # What write queue length does an incoming req see
system.mem_ctrl.wrQLenPdf::35                       0                       # What write queue length does an incoming req see
system.mem_ctrl.wrQLenPdf::36                       0                       # What write queue length does an incoming req see
system.mem_ctrl.wrQLenPdf::37                       0                       # What write queue length does an incoming req see
system.mem_ctrl.wrQLenPdf::38                       0                       # What write queue length does an incoming req see
system.mem_ctrl.wrQLenPdf::39                       0                       # What write queue length does an incoming req see
system.mem_ctrl.wrQLenPdf::40                       0                       # What write queue length does an incoming req see
system.mem_ctrl.wrQLenPdf::41                       0                       # What write queue length does an incoming req see
system.mem_ctrl.wrQLenPdf::42                       0                       # What write queue length does an incoming req see
system.mem_ctrl.wrQLenPdf::43                       0                       # What write queue length does an incoming req see
system.mem_ctrl.wrQLenPdf::44                       0                       # What write queue length does an incoming req see
system.mem_ctrl.wrQLenPdf::45                       0                       # What write queue length does an incoming req see
system.mem_ctrl.wrQLenPdf::46                       0                       # What write queue length does an incoming req see
system.mem_ctrl.wrQLenPdf::47                       0                       # What write queue length does an incoming req see
system.mem_ctrl.wrQLenPdf::48                       0                       # What write queue length does an incoming req see
system.mem_ctrl.wrQLenPdf::49                       0                       # What write queue length does an incoming req see
system.mem_ctrl.wrQLenPdf::50                       0                       # What write queue length does an incoming req see
system.mem_ctrl.wrQLenPdf::51                       0                       # What write queue length does an incoming req see
system.mem_ctrl.wrQLenPdf::52                       0                       # What write queue length does an incoming req see
system.mem_ctrl.wrQLenPdf::53                       0                       # What write queue length does an incoming req see
system.mem_ctrl.wrQLenPdf::54                       0                       # What write queue length does an incoming req see
system.mem_ctrl.wrQLenPdf::55                       0                       # What write queue length does an incoming req see
system.mem_ctrl.wrQLenPdf::56                       0                       # What write queue length does an incoming req see
system.mem_ctrl.wrQLenPdf::57                       0                       # What write queue length does an incoming req see
system.mem_ctrl.wrQLenPdf::58                       0                       # What write queue length does an incoming req see
system.mem_ctrl.wrQLenPdf::59                       0                       # What write queue length does an incoming req see
system.mem_ctrl.wrQLenPdf::60                       0                       # What write queue length does an incoming req see
system.mem_ctrl.wrQLenPdf::61                       0                       # What write queue length does an incoming req see
system.mem_ctrl.wrQLenPdf::62                       0                       # What write queue length does an incoming req see
system.mem_ctrl.wrQLenPdf::63                       0                       # What write queue length does an incoming req see
system.mem_ctrl.bytesPerActivate::samples         1574                       # Bytes accessed per row activation
system.mem_ctrl.bytesPerActivate::mean     626.947903                       # Bytes accessed per row activation
system.mem_ctrl.bytesPerActivate::gmean    406.959498                       # Bytes accessed per row activation
system.mem_ctrl.bytesPerActivate::stdev    411.760404                       # Bytes accessed per row activation
system.mem_ctrl.bytesPerActivate::0-127           321     20.39%     20.39% # Bytes accessed per row activation
system.mem_ctrl.bytesPerActivate::128-255          146      9.28%     29.67% # Bytes accessed per row activation
system.mem_ctrl.bytesPerActivate::256-383           95      6.04%     35.71% # Bytes accessed per row activation
system.mem_ctrl.bytesPerActivate::384-511           75      4.76%     40.47% # Bytes accessed per row activation
system.mem_ctrl.bytesPerActivate::512-639           77      4.89%     45.36% # Bytes accessed per row activation
system.mem_ctrl.bytesPerActivate::640-767           52      3.30%     48.67% # Bytes accessed per row activation
system.mem_ctrl.bytesPerActivate::768-895           56      3.56%     52.22% # Bytes accessed per row activation
system.mem_ctrl.bytesPerActivate::896-1023           62      3.94%     56.16% # Bytes accessed per row activation
system.mem_ctrl.bytesPerActivate::1024-1151          690     43.84%    100.00% # Bytes accessed per row activation
system.mem_ctrl.bytesPerActivate::total          1574                       # Bytes accessed per row activation
system.mem_ctrl.rdPerTurnAround::samples           14                       # Reads before turning the bus around for writes
system.mem_ctrl.rdPerTurnAround::mean     1057.214286                       # Reads before turning the bus around for writes
system.mem_ctrl.rdPerTurnAround::gmean     776.397860                       # Reads before turning the bus around for writes
system.mem_ctrl.rdPerTurnAround::stdev    1082.161241                       # Reads before turning the bus around for writes
system.mem_ctrl.rdPerTurnAround::0-255              1      7.14%      7.14% # Reads before turning the bus around for writes
system.mem_ctrl.rdPerTurnAround::256-511            3     21.43%     28.57% # Reads before turning the bus around for writes
system.mem_ctrl.rdPerTurnAround::512-767            4     28.57%     57.14% # Reads before turning the bus around for writes
system.mem_ctrl.rdPerTurnAround::768-1023            2     14.29%     71.43% # Reads before turning the bus around for writes
system.mem_ctrl.rdPerTurnAround::1024-1279            1      7.14%     78.57% # Reads before turning the bus around for writes
system.mem_ctrl.rdPerTurnAround::1280-1535            1      7.14%     85.71% # Reads before turning the bus around for writes
system.mem_ctrl.rdPerTurnAround::1792-2047            1      7.14%     92.86% # Reads before turning the bus around for writes
system.mem_ctrl.rdPerTurnAround::4352-4607            1      7.14%    100.00% # Reads before turning the bus around for writes
system.mem_ctrl.rdPerTurnAround::total             14                       # Reads before turning the bus around for writes
system.mem_ctrl.wrPerTurnAround::samples           14                       # Writes before turning the bus around for reads
system.mem_ctrl.wrPerTurnAround::mean              16                       # Writes before turning the bus around for reads
system.mem_ctrl.wrPerTurnAround::gmean      16.000000                       # Writes before turning the bus around for reads
system.mem_ctrl.wrPerTurnAround::16                14    100.00%    100.00% # Writes before turning the bus around for reads
system.mem_ctrl.wrPerTurnAround::total             14                       # Writes before turning the bus around for reads
system.mem_ctrl.masterReadBytes::.cpu.inst       107592                       # Per-master bytes read from memory
system.mem_ctrl.masterReadBytes::.cpu.data        12348                       # Per-master bytes read from memory
system.mem_ctrl.masterWriteBytes::.cpu.data         1663                       # Per-master bytes write to memory
system.mem_ctrl.masterReadRate::.cpu.inst 113602120.167459443212                       # Per-master bytes read from memory rate (Bytes/sec)
system.mem_ctrl.masterReadRate::.cpu.data 13037762.843220584095                       # Per-master bytes read from memory rate (Bytes/sec)
system.mem_ctrl.masterWriteRate::.cpu.data 1755895.659886283800                       # Per-master bytes write to memory rate (Bytes/sec)
system.mem_ctrl.masterReadAccesses::.cpu.inst        13449                       # Per-master read serviced memory accesses
system.mem_ctrl.masterReadAccesses::.cpu.data         2039                       # Per-master read serviced memory accesses
system.mem_ctrl.masterWriteAccesses::.cpu.data         1963                       # Per-master write serviced memory accesses
system.mem_ctrl.masterReadTotalLat::.cpu.inst    380311500                       # Per-master read total memory access latency
system.mem_ctrl.masterReadTotalLat::.cpu.data     59567500                       # Per-master read total memory access latency
system.mem_ctrl.masterWriteTotalLat::.cpu.data  17641132750                       # Per-master write total memory access latency
system.mem_ctrl.masterReadAvgLat::.cpu.inst     28278.05                       # Per-master read average memory access latency
system.mem_ctrl.masterReadAvgLat::.cpu.data     29214.08                       # Per-master read average memory access latency
system.mem_ctrl.masterWriteAvgLat::.cpu.data   8986822.59                       # Per-master write average memory access latency
system.mem_ctrl.totQLat                     154541500                       # Total ticks spent queuing
system.mem_ctrl.totMemAccLat                439879000                       # Total ticks spent from burst creation until serviced by the DRAM
system.mem_ctrl.totBusLat                    76090000                       # Total ticks spent in databus transfers
system.mem_ctrl.avgQLat                      10155.18                       # Average queueing delay per DRAM burst
system.mem_ctrl.avgBusLat                     5000.00                       # Average bus latency per DRAM burst
system.mem_ctrl.avgMemAccLat                 28905.18                       # Average memory access latency per DRAM burst
system.mem_ctrl.avgRdBW                       1028.36                       # Average DRAM read bandwidth in MiByte/s
system.mem_ctrl.avgWrBW                         15.14                       # Average achieved write bandwidth in MiByte/s
system.mem_ctrl.avgRdBWSys                     128.56                       # Average system read bandwidth in MiByte/s
system.mem_ctrl.avgWrBWSys                      15.29                       # Average system write bandwidth in MiByte/s
system.mem_ctrl.peakBW                       12800.00                       # Theoretical peak bandwidth in MiByte/s
system.mem_ctrl.busUtil                          8.15                       # Data bus utilization in percentage
system.mem_ctrl.busUtilRead                      8.03                       # Data bus utilization in percentage for reads
system.mem_ctrl.busUtilWrite                     0.12                       # Data bus utilization in percentage for writes
system.mem_ctrl.avgRdQLen                        1.00                       # Average read queue length when enqueuing
system.mem_ctrl.avgWrQLen                       24.17                       # Average write queue length when enqueuing
system.mem_ctrl.readRowHits                     13664                       # Number of row buffer hits during reads
system.mem_ctrl.writeRowHits                      200                       # Number of row buffer hits during writes
system.mem_ctrl.readRowHitRate                  89.79                       # Row buffer hit rate for reads
system.mem_ctrl.writeRowHitRate                 79.05                       # Row buffer hit rate for writes
system.mem_ctrl.avgGap                       54267.26                       # Average gap between requests
system.mem_ctrl.pageHitRate                     89.61                       # Row buffer hit rate, read and write combined
system.mem_ctrl_0.actEnergy                   5790540                       # Energy for activate commands per rank (pJ)
system.mem_ctrl_0.preEnergy                   3070155                       # Energy for precharge commands per rank (pJ)
system.mem_ctrl_0.readEnergy                 51200940                       # Energy for read commands per rank (pJ)
system.mem_ctrl_0.writeEnergy                  934380                       # Energy for write commands per rank (pJ)
system.mem_ctrl_0.refreshEnergy          65766480.000000                       # Energy for refresh commands per rank (pJ)
system.mem_ctrl_0.actBackEnergy             109807080                       # Energy for active background per rank (pJ)
system.mem_ctrl_0.preBackEnergy               2546880                       # Energy for precharge background per rank (pJ)
system.mem_ctrl_0.actPowerDownEnergy        230604330                       # Energy for active power-down per rank (pJ)
system.mem_ctrl_0.prePowerDownEnergy         32157600                       # Energy for precharge power-down per rank (pJ)
system.mem_ctrl_0.selfRefreshEnergy          29762040                       # Energy for self refresh per rank (pJ)
system.mem_ctrl_0.totalEnergy               531640425                       # Total energy per rank (pJ)
system.mem_ctrl_0.averagePower             561.338013                       # Core power per rank (mW)
system.mem_ctrl_0.totalIdleTime             699191750                       # Total Idle time Per DRAM Rank
system.mem_ctrl_0.memoryStateTime::IDLE       2568000                       # Time in different power states
system.mem_ctrl_0.memoryStateTime::REF       27820000                       # Time in different power states
system.mem_ctrl_0.memoryStateTime::SREF     110199750                       # Time in different power states
system.mem_ctrl_0.memoryStateTime::PRE_PDN     83741500                       # Time in different power states
system.mem_ctrl_0.memoryStateTime::ACT      216955000                       # Time in different power states
system.mem_ctrl_0.memoryStateTime::ACT_PDN    505810750                       # Time in different power states
system.mem_ctrl_1.actEnergy                   5476380                       # Energy for activate commands per rank (pJ)
system.mem_ctrl_1.preEnergy                   2903175                       # Energy for precharge commands per rank (pJ)
system.mem_ctrl_1.readEnergy                 57448440                       # Energy for read commands per rank (pJ)
system.mem_ctrl_1.writeEnergy                  234900                       # Energy for write commands per rank (pJ)
system.mem_ctrl_1.refreshEnergy          57776160.000000                       # Energy for refresh commands per rank (pJ)
system.mem_ctrl_1.actBackEnergy             112912440                       # Energy for active background per rank (pJ)
system.mem_ctrl_1.preBackEnergy               5956320                       # Energy for precharge background per rank (pJ)
system.mem_ctrl_1.actPowerDownEnergy        175876920                       # Energy for active power-down per rank (pJ)
system.mem_ctrl_1.prePowerDownEnergy         35162400                       # Energy for precharge power-down per rank (pJ)
system.mem_ctrl_1.selfRefreshEnergy          53474880                       # Energy for self refresh per rank (pJ)
system.mem_ctrl_1.totalEnergy               507222015                       # Total energy per rank (pJ)
system.mem_ctrl_1.averagePower             535.555583                       # Core power per rank (mW)
system.mem_ctrl_1.totalIdleTime             683913000                       # Total Idle time Per DRAM Rank
system.mem_ctrl_1.memoryStateTime::IDLE      10696250                       # Time in different power states
system.mem_ctrl_1.memoryStateTime::REF       24440000                       # Time in different power states
system.mem_ctrl_1.memoryStateTime::SREF     206706000                       # Time in different power states
system.mem_ctrl_1.memoryStateTime::PRE_PDN     91574500                       # Time in different power states
system.mem_ctrl_1.memoryStateTime::ACT      228045750                       # Time in different power states
system.mem_ctrl_1.memoryStateTime::ACT_PDN    385632500                       # Time in different power states
system.pwrStateResidencyTicks::UNDEFINED    947095000                       # Cumulative time (in ticks) in various power states
system.cpu.dtb.walker.pwrStateResidencyTicks::UNDEFINED    947095000                       # Cumulative time (in ticks) in various power states
system.cpu.dtb.rdAccesses                        2039                       # TLB accesses on read requests
system.cpu.dtb.wrAccesses                        1963                       # TLB accesses on write requests
system.cpu.dtb.rdMisses                            16                       # TLB misses on read requests
system.cpu.dtb.wrMisses                             8                       # TLB misses on write requests
system.cpu.apic_clk_domain.clock                16000                       # Clock period in ticks
system.cpu.interrupts.pwrStateResidencyTicks::UNDEFINED    947095000                       # Cumulative time (in ticks) in various power states
system.cpu.itb.walker.pwrStateResidencyTicks::UNDEFINED    947095000                       # Cumulative time (in ticks) in various power states
system.cpu.itb.rdAccesses                           0                       # TLB accesses on read requests
system.cpu.itb.wrAccesses                       13449                       # TLB accesses on write requests
system.cpu.itb.rdMisses                             0                       # TLB misses on read requests
system.cpu.itb.wrMisses                            49                       # TLB misses on write requests
system.cpu.workload.numSyscalls                    11                       # Number of system calls
system.cpu.pwrStateResidencyTicks::ON       947095000                       # Cumulative time (in ticks) in various power states
system.cpu.numCycles                           947095                       # number of cpu cycles simulated
system.cpu.numWorkItemsStarted                      0                       # number of work items this cpu started
system.cpu.numWorkItemsCompleted                    0                       # number of work items this cpu completed
system.cpu.committedInsts                       10233                       # Number of instructions committed
system.cpu.committedOps                         19726                       # Number of ops (including micro ops) committed
system.cpu.num_int_alu_accesses                 18834                       # Number of integer alu accesses
system.cpu.num_fp_alu_accesses                   1797                       # Number of float alu accesses
system.cpu.num_vec_alu_accesses                     0                       # Number of vector alu accesses
system.cpu.num_func_calls                         303                       # number of times a function call or return occured
system.cpu.num_conditional_control_insts         1683                       # number of instructions that are conditional controls
system.cpu.num_int_insts                        18834                       # number of integer instructions
system.cpu.num_fp_insts                          1797                       # number of float instructions
system.cpu.num_vec_insts                            0                       # number of vector instructions
system.cpu.num_int_register_reads               35628                       # number of times the integer registers were read
system.cpu.num_int_register_writes              14419                       # number of times the integer registers were written
system.cpu.num_fp_register_reads                 2604                       # number of times the floating registers were read
system.cpu.num_fp_register_writes                1269                       # number of times the floating registers were written
system.cpu.num_vec_register_reads                   0                       # number of times the vector registers were read
system.cpu.num_vec_register_writes                  0                       # number of times the vector registers were written
system.cpu.num_cc_register_reads                11101                       # number of times the CC registers were read
system.cpu.num_cc_register_writes                6372                       # number of times the CC registers were written
system.cpu.num_mem_refs                          3999                       # number of memory refs
system.cpu.num_load_insts                        2036                       # Number of load instructions
system.cpu.num_store_insts                       1963                       # Number of store instructions
system.cpu.num_idle_cycles                          0                       # Number of idle cycles
system.cpu.num_busy_cycles                     947095                       # Number of busy cycles
system.cpu.not_idle_fraction                        1                       # Percentage of non-idle cycles
system.cpu.idle_fraction                            0                       # Percentage of idle cycles
system.cpu.Branches                              2152                       # Number of branches fetched
system.cpu.op_class::No_OpClass                    73      0.37%      0.37% # Class of executed instruction
system.cpu.op_class::IntAlu                     14624     74.14%     74.51% # Class of executed instruction
system.cpu.op_class::IntMult                       11      0.06%     74.56% # Class of executed instruction
system.cpu.op_class::IntDiv                        56      0.28%     74.85% # Class of executed instruction
system.cpu.op_class::FloatAdd                       8      0.04%     74.89% # Class of executed instruction
system.cpu.op_class::FloatCmp                       0      0.00%     74.89% # Class of executed instruction
system.cpu.op_class::FloatCvt                       0      0.00%     74.89% # Class of executed instruction
system.cpu.op_class::FloatMult                      0      0.00%     74.89% # Class of executed instruction
system.cpu.op_class::FloatMultAcc                   0      0.00%     74.89% # Class of executed instruction
system.cpu.op_class::FloatDiv                       0      0.00%     74.89% # Class of executed instruction
system.cpu.op_class::FloatMisc                      0      0.00%     74.89% # Class of executed instruction
system.cpu.op_class::FloatSqrt                      0      0.00%     74.89% # Class of executed instruction
system.cpu.op_class::SimdAdd                        0      0.00%     74.89% # Class of executed instruction
system.cpu.op_class::SimdAddAcc                     0      0.00%     74.89% # Class of executed instruction
system.cpu.op_class::SimdAlu                      286      1.45%     76.34% # Class of executed instruction
system.cpu.op_class::SimdCmp                        0      0.00%     76.34% # Class of executed instruction
system.cpu.op_class::SimdCvt                       54      0.27%     76.61% # Class of executed instruction
system.cpu.op_class::SimdMisc                     213      1.08%     77.69% # Class of executed instruction
system.cpu.op_class::SimdMult                       0      0.00%     77.69% # Class of executed instruction
system.cpu.op_class::SimdMultAcc                    0      0.00%     77.69% # Class of executed instruction
system.cpu.op_class::SimdShift                      0      0.00%     77.69% # Class of executed instruction
system.cpu.op_class::SimdShiftAcc                   0      0.00%     77.69% # Class of executed instruction
system.cpu.op_class::SimdSqrt                       0      0.00%     77.69% # Class of executed instruction
system.cpu.op_class::SimdFloatAdd                 200      1.01%     78.70% # Class of executed instruction
system.cpu.op_class::SimdFloatAlu                   0      0.00%     78.70% # Class of executed instruction
system.cpu.op_class::SimdFloatCmp                   0      0.00%     78.70% # Class of executed instruction
system.cpu.op_class::SimdFloatCvt                 102      0.52%     79.22% # Class of executed instruction
system.cpu.op_class::SimdFloatDiv                   0      0.00%     79.22% # Class of executed instruction
system.cpu.op_class::SimdFloatMisc                  0      0.00%     79.22% # Class of executed instruction
system.cpu.op_class::SimdFloatMult                100      0.51%     79.73% # Class of executed instruction
system.cpu.op_class::SimdFloatMultAcc               0      0.00%     79.73% # Class of executed instruction
system.cpu.op_class::SimdFloatSqrt                  0      0.00%     79.73% # Class of executed instruction
system.cpu.op_class::MemRead                     1689      8.56%     88.29% # Class of executed instruction
system.cpu.op_class::MemWrite                    1494      7.57%     95.86% # Class of executed instruction
system.cpu.op_class::FloatMemRead                 347      1.76%     97.62% # Class of executed instruction
system.cpu.op_class::FloatMemWrite                469      2.38%    100.00% # Class of executed instruction
system.cpu.op_class::IprAccess                      0      0.00%    100.00% # Class of executed instruction
system.cpu.op_class::InstPrefetch                   0      0.00%    100.00% # Class of executed instruction
system.cpu.op_class::total                      19726                       # Class of executed instruction
system.membus.snoop_filter.tot_requests             0                       # Total number of requests made to the snoop filter.
system.membus.snoop_filter.hit_single_requests            0                       # Number of requests hitting in the snoop filter with a single holder of the requested data.
system.membus.snoop_filter.hit_multi_requests            0                       # Number of requests hitting in the snoop filter with multiple (>1) holders of the requested data.
system.membus.snoop_filter.tot_snoops               0                       # Total number of snoops made to the snoop filter.
system.membus.snoop_filter.hit_single_snoops            0                       # Number of snoops hitting in the snoop filter with a single holder of the requested data.
system.membus.snoop_filter.hit_multi_snoops            0                       # Number of snoops hitting in the snoop filter with multiple (>1) holders of the requested data.
system.membus.pwrStateResidencyTicks::UNDEFINED    947095000                       # Cumulative time (in ticks) in various power states
system.membus.trans_dist::ReadReq               15488                       # Transaction distribution
system.membus.trans_dist::ReadResp              15487                       # Transaction distribution
system.membus.trans_dist::WriteReq               1963                       # Transaction distribution
system.membus.trans_dist::WriteResp              1963                       # Transaction distribution
system.membus.pkt_count_system.cpu.icache_port::system.mem_ctrl.port        26897                       # Packet count per connected master and slave (bytes)
system.membus.pkt_count_system.cpu.icache_port::total        26897                       # Packet count per connected master and slave (bytes)
system.membus.pkt_count_system.cpu.dcache_port::system.mem_ctrl.port         8004                       # Packet count per connected master and slave (bytes)
system.membus.pkt_count_system.cpu.dcache_port::total         8004                       # Packet count per connected master and slave (bytes)
system.membus.pkt_count::total                  34901                       # Packet count per connected master and slave (bytes)
system.membus.pkt_size_system.cpu.icache_port::system.mem_ctrl.port       107584                       # Cumulative packet size per connected master and slave (bytes)
system.membus.pkt_size_system.cpu.icache_port::total       107584                       # Cumulative packet size per connected master and slave (bytes)
system.membus.pkt_size_system.cpu.dcache_port::system.mem_ctrl.port        28649                       # Cumulative packet size per connected master and slave (bytes)
system.membus.pkt_size_system.cpu.dcache_port::total        28649                       # Cumulative packet size per connected master and slave (bytes)
system.membus.pkt_size::total                  136233                       # Cumulative packet size per connected master and slave (bytes)
system.membus.snoops                                0                       # Total snoops (count)
system.membus.snoopTraffic                          0                       # Total snoop traffic (bytes)
system.membus.snoop_fanout::samples             17451                       # Request fanout histogram
system.membus.snoop_fanout::mean                    0                       # Request fanout histogram
system.membus.snoop_fanout::stdev                   0                       # Request fanout histogram
system.membus.snoop_fanout::underflows              0      0.00%      0.00% # Request fanout histogram
system.membus.snoop_fanout::0                   17451    100.00%    100.00% # Request fanout histogram
system.membus.snoop_fanout::1                       0      0.00%    100.00% # Request fanout histogram
system.membus.snoop_fanout::overflows               0      0.00%    100.00% # Request fanout histogram
system.membus.snoop_fanout::min_value               0                       # Request fanout histogram
system.membus.snoop_fanout::max_value               0                       # Request fanout histogram
system.membus.snoop_fanout::total               17451                       # Request fanout histogram
system.membus.reqLayer2.occupancy            19414000                       # Layer occupancy (ticks)
system.membus.reqLayer2.utilization               2.0                       # Layer utilization (%)
system.membus.respLayer0.occupancy           30574250                       # Layer occupancy (ticks)
system.membus.respLayer0.utilization              3.2                       # Layer utilization (%)
system.membus.respLayer1.occupancy            6632500                       # Layer occupancy (ticks)
system.membus.respLayer1.utilization              0.7                       # Layer utilization (%)

---------- End Simulation Statistics   ----------
