
---------- Begin Simulation Statistics ----------
sim_seconds                                  0.006509                       # Number of seconds simulated
sim_ticks                                  6508692500                       # Number of ticks simulated
final_tick                                 6508692500                       # Number of ticks from beginning of simulation (restored from checkpoints and never reset)
sim_freq                                 1000000000000                       # Frequency of simulated ticks
host_inst_rate                                 300096                       # Simulator instruction rate (inst/s)
host_op_rate                                   300126                       # Simulator op (including micro ops) rate (op/s)
host_tick_rate                               96729676                       # Simulator tick rate (ticks/s)
host_mem_usage                                 811788                       # Number of bytes of host memory used
host_seconds                                    67.29                       # Real time elapsed on the host
sim_insts                                    20192680                       # Number of instructions simulated
sim_ops                                      20194712                       # Number of ops (including micro ops) simulated
system.voltage_domain.voltage                       1                       # Voltage in Volts
system.clk_domain.clock                          1000                       # Clock period in ticks
system.mem_ctrls.pwrStateResidencyTicks::UNDEFINED   6508692500                       # Cumulative time (in ticks) in various power states
system.mem_ctrls.bytes_read::.cpu.inst          33216                       # Number of bytes read from this memory
system.mem_ctrls.bytes_read::.cpu.data         811008                       # Number of bytes read from this memory
system.mem_ctrls.bytes_read::total             844224                       # Number of bytes read from this memory
system.mem_ctrls.bytes_inst_read::.cpu.inst        33216                       # Number of instructions bytes read from this memory
system.mem_ctrls.bytes_inst_read::total         33216                       # Number of instructions bytes read from this memory
system.mem_ctrls.num_reads::.cpu.inst             519                       # Number of read requests responded to by this memory
system.mem_ctrls.num_reads::.cpu.data           12672                       # Number of read requests responded to by this memory
system.mem_ctrls.num_reads::total               13191                       # Number of read requests responded to by this memory
system.mem_ctrls.bw_read::.cpu.inst           5103329                       # Total read bandwidth from this memory (bytes/s)
system.mem_ctrls.bw_read::.cpu.data         124603828                       # Total read bandwidth from this memory (bytes/s)
system.mem_ctrls.bw_read::total             129707157                       # Total read bandwidth from this memory (bytes/s)
system.mem_ctrls.bw_inst_read::.cpu.inst      5103329                       # Instruction read bandwidth from this memory (bytes/s)
system.mem_ctrls.bw_inst_read::total          5103329                       # Instruction read bandwidth from this memory (bytes/s)
system.mem_ctrls.bw_total::.cpu.inst          5103329                       # Total bandwidth to/from this memory (bytes/s)
system.mem_ctrls.bw_total::.cpu.data        124603828                       # Total bandwidth to/from this memory (bytes/s)
system.mem_ctrls.bw_total::total            129707157                       # Total bandwidth to/from this memory (bytes/s)
system.mem_ctrls.avgPriority_.cpu.inst::samples       519.00                       # Average QoS priority value for accepted requests
system.mem_ctrls.avgPriority_.cpu.data::samples     12672.00                       # Average QoS priority value for accepted requests
system.mem_ctrls.priorityMinLatency      0.000000018750                       # per QoS priority minimum request to response latency (s)
system.mem_ctrls.priorityMaxLatency      0.000001099750                       # per QoS priority maximum request to response latency (s)
system.mem_ctrls.numReadWriteTurnArounds            0                       # Number of turnarounds from READ to WRITE
system.mem_ctrls.numWriteReadTurnArounds            0                       # Number of turnarounds from WRITE to READ
system.mem_ctrls.numStayReadState               26637                       # Number of times bus staying in READ state
system.mem_ctrls.numStayWriteState                  0                       # Number of times bus staying in WRITE state
system.mem_ctrls.readReqs                       13191                       # Number of read requests accepted
system.mem_ctrls.writeReqs                          0                       # Number of write requests accepted
system.mem_ctrls.readBursts                     13191                       # Number of DRAM read bursts, including those serviced by the write queue
system.mem_ctrls.writeBursts                        0                       # Number of DRAM write bursts, including those merged in the write queue
system.mem_ctrls.bytesReadDRAM                 844224                       # Total number of bytes read from DRAM
system.mem_ctrls.bytesReadWrQ                       0                       # Total number of bytes read from write queue
system.mem_ctrls.bytesWritten                       0                       # Total number of bytes written to DRAM
system.mem_ctrls.bytesReadSys                  844224                       # Total read bytes from the system interface side
system.mem_ctrls.bytesWrittenSys                    0                       # Total written bytes from the system interface side
system.mem_ctrls.servicedByWrQ                      0                       # Number of DRAM read bursts serviced by the write queue
system.mem_ctrls.mergedWrBursts                     0                       # Number of DRAM write bursts merged with an existing one
system.mem_ctrls.neitherReadNorWriteReqs            0                       # Number of requests that are neither read nor write
system.mem_ctrls.perBankRdBursts::0               903                       # Per bank write bursts
system.mem_ctrls.perBankRdBursts::1               776                       # Per bank write bursts
system.mem_ctrls.perBankRdBursts::2               770                       # Per bank write bursts
system.mem_ctrls.perBankRdBursts::3               833                       # Per bank write bursts
system.mem_ctrls.perBankRdBursts::4               770                       # Per bank write bursts
system.mem_ctrls.perBankRdBursts::5               847                       # Per bank write bursts
system.mem_ctrls.perBankRdBursts::6               865                       # Per bank write bursts
system.mem_ctrls.perBankRdBursts::7               827                       # Per bank write bursts
system.mem_ctrls.perBankRdBursts::8               819                       # Per bank write bursts
system.mem_ctrls.perBankRdBursts::9               783                       # Per bank write bursts
system.mem_ctrls.perBankRdBursts::10              792                       # Per bank write bursts
system.mem_ctrls.perBankRdBursts::11              783                       # Per bank write bursts
system.mem_ctrls.perBankRdBursts::12              846                       # Per bank write bursts
system.mem_ctrls.perBankRdBursts::13              884                       # Per bank write bursts
system.mem_ctrls.perBankRdBursts::14              840                       # Per bank write bursts
system.mem_ctrls.perBankRdBursts::15              853                       # Per bank write bursts
system.mem_ctrls.perBankWrBursts::0                 0                       # Per bank write bursts
system.mem_ctrls.perBankWrBursts::1                 0                       # Per bank write bursts
system.mem_ctrls.perBankWrBursts::2                 0                       # Per bank write bursts
system.mem_ctrls.perBankWrBursts::3                 0                       # Per bank write bursts
system.mem_ctrls.perBankWrBursts::4                 0                       # Per bank write bursts
system.mem_ctrls.perBankWrBursts::5                 0                       # Per bank write bursts
system.mem_ctrls.perBankWrBursts::6                 0                       # Per bank write bursts
system.mem_ctrls.perBankWrBursts::7                 0                       # Per bank write bursts
system.mem_ctrls.perBankWrBursts::8                 0                       # Per bank write bursts
system.mem_ctrls.perBankWrBursts::9                 0                       # Per bank write bursts
system.mem_ctrls.perBankWrBursts::10                0                       # Per bank write bursts
system.mem_ctrls.perBankWrBursts::11                0                       # Per bank write bursts
system.mem_ctrls.perBankWrBursts::12                0                       # Per bank write bursts
system.mem_ctrls.perBankWrBursts::13                0                       # Per bank write bursts
system.mem_ctrls.perBankWrBursts::14                0                       # Per bank write bursts
system.mem_ctrls.perBankWrBursts::15                0                       # Per bank write bursts
system.mem_ctrls.numRdRetry                         0                       # Number of times read queue was full causing retry
system.mem_ctrls.numWrRetry                         0                       # Number of times write queue was full causing retry
system.mem_ctrls.totGap                    6508656000                       # Total gap between requests
system.mem_ctrls.readPktSize::0                     0                       # Read request sizes (log2)
system.mem_ctrls.readPktSize::1                     0                       # Read request sizes (log2)
system.mem_ctrls.readPktSize::2                     0                       # Read request sizes (log2)
system.mem_ctrls.readPktSize::3                     0                       # Read request sizes (log2)
system.mem_ctrls.readPktSize::4                     0                       # Read request sizes (log2)
system.mem_ctrls.readPktSize::5                     0                       # Read request sizes (log2)
system.mem_ctrls.readPktSize::6                 13191                       # Read request sizes (log2)
system.mem_ctrls.writePktSize::0                    0                       # Write request sizes (log2)
system.mem_ctrls.writePktSize::1                    0                       # Write request sizes (log2)
system.mem_ctrls.writePktSize::2                    0                       # Write request sizes (log2)
system.mem_ctrls.writePktSize::3                    0                       # Write request sizes (log2)
system.mem_ctrls.writePktSize::4                    0                       # Write request sizes (log2)
system.mem_ctrls.writePktSize::5                    0                       # Write request sizes (log2)
system.mem_ctrls.writePktSize::6                    0                       # Write request sizes (log2)
system.mem_ctrls.rdQLenPdf::0                   11685                       # What read queue length does an incoming req see
system.mem_ctrls.rdQLenPdf::1                    1428                       # What read queue length does an incoming req see
system.mem_ctrls.rdQLenPdf::2                      60                       # What read queue length does an incoming req see
system.mem_ctrls.rdQLenPdf::3                      15                       # What read queue length does an incoming req see
system.mem_ctrls.rdQLenPdf::4                       3                       # What read queue length does an incoming req see
system.mem_ctrls.rdQLenPdf::5                       0                       # What read queue length does an incoming req see
system.mem_ctrls.rdQLenPdf::6                       0                       # What read queue length does an incoming req see
system.mem_ctrls.rdQLenPdf::7                       0                       # What read queue length does an incoming req see
system.mem_ctrls.rdQLenPdf::8                       0                       # What read queue length does an incoming req see
system.mem_ctrls.rdQLenPdf::9                       0                       # What read queue length does an incoming req see
system.mem_ctrls.rdQLenPdf::10                      0                       # What read queue length does an incoming req see
system.mem_ctrls.rdQLenPdf::11                      0                       # What read queue length does an incoming req see
system.mem_ctrls.rdQLenPdf::12                      0                       # What read queue length does an incoming req see
system.mem_ctrls.rdQLenPdf::13                      0                       # What read queue length does an incoming req see
system.mem_ctrls.rdQLenPdf::14                      0                       # What read queue length does an incoming req see
system.mem_ctrls.rdQLenPdf::15                      0                       # What read queue length does an incoming req see
system.mem_ctrls.rdQLenPdf::16                      0                       # What read queue length does an incoming req see
system.mem_ctrls.rdQLenPdf::17                      0                       # What read queue length does an incoming req see
system.mem_ctrls.rdQLenPdf::18                      0                       # What read queue length does an incoming req see
system.mem_ctrls.rdQLenPdf::19                      0                       # What read queue length does an incoming req see
system.mem_ctrls.rdQLenPdf::20                      0                       # What read queue length does an incoming req see
system.mem_ctrls.rdQLenPdf::21                      0                       # What read queue length does an incoming req see
system.mem_ctrls.rdQLenPdf::22                      0                       # What read queue length does an incoming req see
system.mem_ctrls.rdQLenPdf::23                      0                       # What read queue length does an incoming req see
system.mem_ctrls.rdQLenPdf::24                      0                       # What read queue length does an incoming req see
system.mem_ctrls.rdQLenPdf::25                      0                       # What read queue length does an incoming req see
system.mem_ctrls.rdQLenPdf::26                      0                       # What read queue length does an incoming req see
system.mem_ctrls.rdQLenPdf::27                      0                       # What read queue length does an incoming req see
system.mem_ctrls.rdQLenPdf::28                      0                       # What read queue length does an incoming req see
system.mem_ctrls.rdQLenPdf::29                      0                       # What read queue length does an incoming req see
system.mem_ctrls.rdQLenPdf::30                      0                       # What read queue length does an incoming req see
system.mem_ctrls.rdQLenPdf::31                      0                       # What read queue length does an incoming req see
system.mem_ctrls.wrQLenPdf::0                       0                       # What write queue length does an incoming req see
system.mem_ctrls.wrQLenPdf::1                       0                       # What write queue length does an incoming req see
system.mem_ctrls.wrQLenPdf::2                       0                       # What write queue length does an incoming req see
system.mem_ctrls.wrQLenPdf::3                       0                       # What write queue length does an incoming req see
system.mem_ctrls.wrQLenPdf::4                       0                       # What write queue length does an incoming req see
system.mem_ctrls.wrQLenPdf::5                       0                       # What write queue length does an incoming req see
system.mem_ctrls.wrQLenPdf::6                       0                       # What write queue length does an incoming req see
system.mem_ctrls.wrQLenPdf::7                       0                       # What write queue length does an incoming req see
system.mem_ctrls.wrQLenPdf::8                       0                       # What write queue length does an incoming req see
system.mem_ctrls.wrQLenPdf::9                       0                       # What write queue length does an incoming req see
system.mem_ctrls.wrQLenPdf::10                      0                       # What write queue length does an incoming req see
system.mem_ctrls.wrQLenPdf::11                      0                       # What write queue length does an incoming req see
system.mem_ctrls.wrQLenPdf::12                      0                       # What write queue length does an incoming req see
system.mem_ctrls.wrQLenPdf::13                      0                       # What write queue length does an incoming req see
system.mem_ctrls.wrQLenPdf::14                      0                       # What write queue length does an incoming req see
system.mem_ctrls.wrQLenPdf::15                      0                       # What write queue length does an incoming req see
system.mem_ctrls.wrQLenPdf::16                      0                       # What write queue length does an incoming req see
system.mem_ctrls.wrQLenPdf::17                      0                       # What write queue length does an incoming req see
system.mem_ctrls.wrQLenPdf::18                      0                       # What write queue length does an incoming req see
system.mem_ctrls.wrQLenPdf::19                      0                       # What write queue length does an incoming req see
system.mem_ctrls.wrQLenPdf::20                      0                       # What write queue length does an incoming req see
system.mem_ctrls.wrQLenPdf::21                      0                       # What write queue length does an incoming req see
system.mem_ctrls.wrQLenPdf::22                      0                       # What write queue length does an incoming req see
system.mem_ctrls.wrQLenPdf::23                      0                       # What write queue length does an incoming req see
system.mem_ctrls.wrQLenPdf::24                      0                       # What write queue length does an incoming req see
system.mem_ctrls.wrQLenPdf::25                      0                       # What write queue length does an incoming req see
system.mem_ctrls.wrQLenPdf::26                      0                       # What write queue length does an incoming req see
system.mem_ctrls.wrQLenPdf::27                      0                       # What write queue length does an incoming req see
system.mem_ctrls.wrQLenPdf::28                      0                       # What write queue length does an incoming req see
system.mem_ctrls.wrQLenPdf::29                      0                       # What write queue length does an incoming req see
system.mem_ctrls.wrQLenPdf::30                      0                       # What write queue length does an incoming req see
system.mem_ctrls.wrQLenPdf::31                      0                       # What write queue length does an incoming req see
system.mem_ctrls.wrQLenPdf::32                      0                       # What write queue length does an incoming req see
system.mem_ctrls.wrQLenPdf::33                      0                       # What write queue length does an incoming req see
system.mem_ctrls.wrQLenPdf::34                      0                       # What write queue length does an incoming req see
system.mem_ctrls.wrQLenPdf::35                      0                       # What write queue length does an incoming req see
system.mem_ctrls.wrQLenPdf::36                      0                       # What write queue length does an incoming req see
system.mem_ctrls.wrQLenPdf::37                      0                       # What write queue length does an incoming req see
system.mem_ctrls.wrQLenPdf::38                      0                       # What write queue length does an incoming req see
system.mem_ctrls.wrQLenPdf::39                      0                       # What write queue length does an incoming req see
system.mem_ctrls.wrQLenPdf::40                      0                       # What write queue length does an incoming req see
system.mem_ctrls.wrQLenPdf::41                      0                       # What write queue length does an incoming req see
system.mem_ctrls.wrQLenPdf::42                      0                       # What write queue length does an incoming req see
system.mem_ctrls.wrQLenPdf::43                      0                       # What write queue length does an incoming req see
system.mem_ctrls.wrQLenPdf::44                      0                       # What write queue length does an incoming req see
system.mem_ctrls.wrQLenPdf::45                      0                       # What write queue length does an incoming req see
system.mem_ctrls.wrQLenPdf::46                      0                       # What write queue length does an incoming req see
system.mem_ctrls.wrQLenPdf::47                      0                       # What write queue length does an incoming req see
system.mem_ctrls.wrQLenPdf::48                      0                       # What write queue length does an incoming req see
system.mem_ctrls.wrQLenPdf::49                      0                       # What write queue length does an incoming req see
system.mem_ctrls.wrQLenPdf::50                      0                       # What write queue length does an incoming req see
system.mem_ctrls.wrQLenPdf::51                      0                       # What write queue length does an incoming req see
system.mem_ctrls.wrQLenPdf::52                      0                       # What write queue length does an incoming req see
system.mem_ctrls.wrQLenPdf::53                      0                       # What write queue length does an incoming req see
system.mem_ctrls.wrQLenPdf::54                      0                       # What write queue length does an incoming req see
system.mem_ctrls.wrQLenPdf::55                      0                       # What write queue length does an incoming req see
system.mem_ctrls.wrQLenPdf::56                      0                       # What write queue length does an incoming req see
system.mem_ctrls.wrQLenPdf::57                      0                       # What write queue length does an incoming req see
system.mem_ctrls.wrQLenPdf::58                      0                       # What write queue length does an incoming req see
system.mem_ctrls.wrQLenPdf::59                      0                       # What write queue length does an incoming req see
system.mem_ctrls.wrQLenPdf::60                      0                       # What write queue length does an incoming req see
system.mem_ctrls.wrQLenPdf::61                      0                       # What write queue length does an incoming req see
system.mem_ctrls.wrQLenPdf::62                      0                       # What write queue length does an incoming req see
system.mem_ctrls.wrQLenPdf::63                      0                       # What write queue length does an incoming req see
system.mem_ctrls.bytesPerActivate::samples         2984                       # Bytes accessed per row activation
system.mem_ctrls.bytesPerActivate::mean    282.337802                       # Bytes accessed per row activation
system.mem_ctrls.bytesPerActivate::gmean   132.342901                       # Bytes accessed per row activation
system.mem_ctrls.bytesPerActivate::stdev   362.918735                       # Bytes accessed per row activation
system.mem_ctrls.bytesPerActivate::0-127         2086     69.91%     69.91% # Bytes accessed per row activation
system.mem_ctrls.bytesPerActivate::128-255           54      1.81%     71.72% # Bytes accessed per row activation
system.mem_ctrls.bytesPerActivate::256-383           42      1.41%     73.12% # Bytes accessed per row activation
system.mem_ctrls.bytesPerActivate::384-511           43      1.44%     74.56% # Bytes accessed per row activation
system.mem_ctrls.bytesPerActivate::512-639           30      1.01%     75.57% # Bytes accessed per row activation
system.mem_ctrls.bytesPerActivate::640-767           37      1.24%     76.81% # Bytes accessed per row activation
system.mem_ctrls.bytesPerActivate::768-895          306     10.25%     87.06% # Bytes accessed per row activation
system.mem_ctrls.bytesPerActivate::896-1023           13      0.44%     87.50% # Bytes accessed per row activation
system.mem_ctrls.bytesPerActivate::1024-1151          373     12.50%    100.00% # Bytes accessed per row activation
system.mem_ctrls.bytesPerActivate::total         2984                       # Bytes accessed per row activation
system.mem_ctrls.masterReadBytes::.cpu.inst        33216                       # Per-master bytes read from memory
system.mem_ctrls.masterReadBytes::.cpu.data       811008                       # Per-master bytes read from memory
system.mem_ctrls.masterReadRate::.cpu.inst 5103329.124858794734                       # Per-master bytes read from memory rate (Bytes/sec)
system.mem_ctrls.masterReadRate::.cpu.data 124603827.880945369601                       # Per-master bytes read from memory rate (Bytes/sec)
system.mem_ctrls.masterReadAccesses::.cpu.inst          519                       # Per-master read serviced memory accesses
system.mem_ctrls.masterReadAccesses::.cpu.data        12672                       # Per-master read serviced memory accesses
system.mem_ctrls.masterReadTotalLat::.cpu.inst     18713000                       # Per-master read total memory access latency
system.mem_ctrls.masterReadTotalLat::.cpu.data    501145000                       # Per-master read total memory access latency
system.mem_ctrls.masterReadAvgLat::.cpu.inst     36055.88                       # Per-master read average memory access latency
system.mem_ctrls.masterReadAvgLat::.cpu.data     39547.43                       # Per-master read average memory access latency
system.mem_ctrls.totQLat                    272526750                       # Total ticks spent queuing
system.mem_ctrls.totMemAccLat               519858000                       # Total ticks spent from burst creation until serviced by the DRAM
system.mem_ctrls.totBusLat                   65955000                       # Total ticks spent in databus transfers
system.mem_ctrls.avgQLat                     20660.05                       # Average queueing delay per DRAM burst
system.mem_ctrls.avgBusLat                    5000.00                       # Average bus latency per DRAM burst
system.mem_ctrls.avgMemAccLat                39410.05                       # Average memory access latency per DRAM burst
system.mem_ctrls.avgRdBW                       129.71                       # Average DRAM read bandwidth in MiByte/s
system.mem_ctrls.avgWrBW                         0.00                       # Average achieved write bandwidth in MiByte/s
system.mem_ctrls.avgRdBWSys                    129.71                       # Average system read bandwidth in MiByte/s
system.mem_ctrls.avgWrBWSys                      0.00                       # Average system write bandwidth in MiByte/s
system.mem_ctrls.peakBW                      12800.00                       # Theoretical peak bandwidth in MiByte/s
system.mem_ctrls.busUtil                         1.01                       # Data bus utilization in percentage
system.mem_ctrls.busUtilRead                     1.01                       # Data bus utilization in percentage for reads
system.mem_ctrls.busUtilWrite                    0.00                       # Data bus utilization in percentage for writes
system.mem_ctrls.avgRdQLen                       1.33                       # Average read queue length when enqueuing
system.mem_ctrls.avgWrQLen                       0.00                       # Average write queue length when enqueuing
system.mem_ctrls.readRowHits                    10201                       # Number of row buffer hits during reads
system.mem_ctrls.writeRowHits                       0                       # Number of row buffer hits during writes
system.mem_ctrls.readRowHitRate                 77.33                       # Row buffer hit rate for reads
system.mem_ctrls.writeRowHitRate                  nan                       # Row buffer hit rate for writes
system.mem_ctrls.avgGap                     493416.42                       # Average gap between requests
system.mem_ctrls.pageHitRate                    77.33                       # Row buffer hit rate, read and write combined
system.mem_ctrls_0.actEnergy                 10602900                       # Energy for activate commands per rank (pJ)
system.mem_ctrls_0.preEnergy                  5620395                       # Energy for precharge commands per rank (pJ)
system.mem_ctrls_0.readEnergy                47059740                       # Energy for read commands per rank (pJ)
system.mem_ctrls_0.writeEnergy                      0                       # Energy for write commands per rank (pJ)
system.mem_ctrls_0.refreshEnergy         84205680.000000                       # Energy for refresh commands per rank (pJ)
system.mem_ctrls_0.actBackEnergy            100415190                       # Energy for active background per rank (pJ)
system.mem_ctrls_0.preBackEnergy              5415840                       # Energy for precharge background per rank (pJ)
system.mem_ctrls_0.actPowerDownEnergy       351294420                       # Energy for active power-down per rank (pJ)
system.mem_ctrls_0.prePowerDownEnergy        25645920                       # Energy for precharge power-down per rank (pJ)
system.mem_ctrls_0.selfRefreshEnergy       1308244140                       # Energy for self refresh per rank (pJ)
system.mem_ctrls_0.totalEnergy             1938504225                       # Total energy per rank (pJ)
system.mem_ctrls_0.averagePower            297.833125                       # Core power per rank (mW)
system.mem_ctrls_0.totalIdleTime           6274404500                       # Total Idle time Per DRAM Rank
system.mem_ctrls_0.memoryStateTime::IDLE      3005500                       # Time in different power states
system.mem_ctrls_0.memoryStateTime::REF      35620000                       # Time in different power states
system.mem_ctrls_0.memoryStateTime::SREF   5437209250                       # Time in different power states
system.mem_ctrls_0.memoryStateTime::PRE_PDN     66795500                       # Time in different power states
system.mem_ctrls_0.memoryStateTime::ACT     195662250                       # Time in different power states
system.mem_ctrls_0.memoryStateTime::ACT_PDN    770400000                       # Time in different power states
system.mem_ctrls_1.actEnergy                 10745700                       # Energy for activate commands per rank (pJ)
system.mem_ctrls_1.preEnergy                  5703885                       # Energy for precharge commands per rank (pJ)
system.mem_ctrls_1.readEnergy                47124000                       # Energy for read commands per rank (pJ)
system.mem_ctrls_1.writeEnergy                      0                       # Energy for write commands per rank (pJ)
system.mem_ctrls_1.refreshEnergy         83591040.000000                       # Energy for refresh commands per rank (pJ)
system.mem_ctrls_1.actBackEnergy            100568520                       # Energy for active background per rank (pJ)
system.mem_ctrls_1.preBackEnergy              5560800                       # Energy for precharge background per rank (pJ)
system.mem_ctrls_1.actPowerDownEnergy       354252150                       # Energy for active power-down per rank (pJ)
system.mem_ctrls_1.prePowerDownEnergy        19332000                       # Energy for precharge power-down per rank (pJ)
system.mem_ctrls_1.selfRefreshEnergy       1309357860                       # Energy for self refresh per rank (pJ)
system.mem_ctrls_1.totalEnergy             1936235955                       # Total energy per rank (pJ)
system.mem_ctrls_1.averagePower            297.484626                       # Core power per rank (mW)
system.mem_ctrls_1.totalIdleTime           6273539250                       # Total Idle time Per DRAM Rank
system.mem_ctrls_1.memoryStateTime::IDLE      2564000                       # Time in different power states
system.mem_ctrls_1.memoryStateTime::REF      35360000                       # Time in different power states
system.mem_ctrls_1.memoryStateTime::SREF   5446451500                       # Time in different power states
system.mem_ctrls_1.memoryStateTime::PRE_PDN     50331500                       # Time in different power states
system.mem_ctrls_1.memoryStateTime::ACT     197105000                       # Time in different power states
system.mem_ctrls_1.memoryStateTime::ACT_PDN    776880500                       # Time in different power states
system.pwrStateResidencyTicks::UNDEFINED   6508692500                       # Cumulative time (in ticks) in various power states
system.cpu.branchPred.lookups                 3362037                       # Number of BP lookups
system.cpu.branchPred.condPredicted           2260149                       # Number of conditional branches predicted
system.cpu.branchPred.condIncorrect               863                       # Number of conditional branches incorrect
system.cpu.branchPred.BTBLookups              1647865                       # Number of BTB lookups
system.cpu.branchPred.BTBHits                 1445266                       # Number of BTB hits
system.cpu.branchPred.BTBCorrect                    0                       # Number of correct BTB predictions (this stat may not work properly.
system.cpu.branchPred.BTBHitPct             87.705364                       # BTB Hit Percentage
system.cpu.branchPred.usedRAS                  500708                       # Number of times the RAS was used to get a target.
system.cpu.branchPred.RASInCorrect                 90                       # Number of incorrect RAS predictions.
system.cpu.branchPred.indirectLookups             248                       # Number of indirect predictor lookups.
system.cpu.branchPred.indirectHits                 37                       # Number of indirect target hits.
system.cpu.branchPred.indirectMisses              211                       # Number of indirect misses.
system.cpu.branchPredindirectMispredicted           94                       # Number of mispredicted indirect branches.
system.cpu_voltage_domain.voltage                   1                       # Voltage in Volts
system.cpu_clk_domain.clock                       500                       # Clock period in ticks
system.cpu.dstage2_mmu.stage2_tlb.walker.pwrStateResidencyTicks::UNDEFINED   6508692500                       # Cumulative time (in ticks) in various power states
system.cpu.dstage2_mmu.stage2_tlb.walker.walks            0                       # Table walker walks requested
system.cpu.dstage2_mmu.stage2_tlb.walker.walkRequestOrigin_Requested::Data            0                       # Table walker requests started/completed, data/inst
system.cpu.dstage2_mmu.stage2_tlb.walker.walkRequestOrigin_Requested::Inst            0                       # Table walker requests started/completed, data/inst
system.cpu.dstage2_mmu.stage2_tlb.walker.walkRequestOrigin_Requested::total            0                       # Table walker requests started/completed, data/inst
system.cpu.dstage2_mmu.stage2_tlb.walker.walkRequestOrigin_Completed::Data            0                       # Table walker requests started/completed, data/inst
system.cpu.dstage2_mmu.stage2_tlb.walker.walkRequestOrigin_Completed::Inst            0                       # Table walker requests started/completed, data/inst
system.cpu.dstage2_mmu.stage2_tlb.walker.walkRequestOrigin_Completed::total            0                       # Table walker requests started/completed, data/inst
system.cpu.dstage2_mmu.stage2_tlb.walker.walkRequestOrigin::total            0                       # Table walker requests started/completed, data/inst
system.cpu.dstage2_mmu.stage2_tlb.inst_hits            0                       # ITB inst hits
system.cpu.dstage2_mmu.stage2_tlb.inst_misses            0                       # ITB inst misses
system.cpu.dstage2_mmu.stage2_tlb.read_hits            0                       # DTB read hits
system.cpu.dstage2_mmu.stage2_tlb.read_misses            0                       # DTB read misses
system.cpu.dstage2_mmu.stage2_tlb.write_hits            0                       # DTB write hits
system.cpu.dstage2_mmu.stage2_tlb.write_misses            0                       # DTB write misses
system.cpu.dstage2_mmu.stage2_tlb.flush_tlb            0                       # Number of times complete TLB was flushed
system.cpu.dstage2_mmu.stage2_tlb.flush_tlb_mva            0                       # Number of times TLB was flushed by MVA
system.cpu.dstage2_mmu.stage2_tlb.flush_tlb_mva_asid            0                       # Number of times TLB was flushed by MVA & ASID
system.cpu.dstage2_mmu.stage2_tlb.flush_tlb_asid            0                       # Number of times TLB was flushed by ASID
system.cpu.dstage2_mmu.stage2_tlb.flush_entries            0                       # Number of entries that have been flushed from TLB
system.cpu.dstage2_mmu.stage2_tlb.align_faults            0                       # Number of TLB faults due to alignment restrictions
system.cpu.dstage2_mmu.stage2_tlb.prefetch_faults            0                       # Number of TLB faults due to prefetch
system.cpu.dstage2_mmu.stage2_tlb.domain_faults            0                       # Number of TLB faults due to domain restrictions
system.cpu.dstage2_mmu.stage2_tlb.perms_faults            0                       # Number of TLB faults due to permissions restrictions
system.cpu.dstage2_mmu.stage2_tlb.read_accesses            0                       # DTB read accesses
system.cpu.dstage2_mmu.stage2_tlb.write_accesses            0                       # DTB write accesses
system.cpu.dstage2_mmu.stage2_tlb.inst_accesses            0                       # ITB inst accesses
system.cpu.dstage2_mmu.stage2_tlb.hits              0                       # DTB hits
system.cpu.dstage2_mmu.stage2_tlb.misses            0                       # DTB misses
system.cpu.dstage2_mmu.stage2_tlb.accesses            0                       # DTB accesses
system.cpu.dtb.walker.pwrStateResidencyTicks::UNDEFINED   6508692500                       # Cumulative time (in ticks) in various power states
system.cpu.dtb.walker.walks                         0                       # Table walker walks requested
system.cpu.dtb.walker.walkRequestOrigin_Requested::Data            0                       # Table walker requests started/completed, data/inst
system.cpu.dtb.walker.walkRequestOrigin_Requested::Inst            0                       # Table walker requests started/completed, data/inst
system.cpu.dtb.walker.walkRequestOrigin_Requested::total            0                       # Table walker requests started/completed, data/inst
system.cpu.dtb.walker.walkRequestOrigin_Completed::Data            0                       # Table walker requests started/completed, data/inst
system.cpu.dtb.walker.walkRequestOrigin_Completed::Inst            0                       # Table walker requests started/completed, data/inst
system.cpu.dtb.walker.walkRequestOrigin_Completed::total            0                       # Table walker requests started/completed, data/inst
system.cpu.dtb.walker.walkRequestOrigin::total            0                       # Table walker requests started/completed, data/inst
system.cpu.dtb.inst_hits                            0                       # ITB inst hits
system.cpu.dtb.inst_misses                          0                       # ITB inst misses
system.cpu.dtb.read_hits                            0                       # DTB read hits
system.cpu.dtb.read_misses                          0                       # DTB read misses
system.cpu.dtb.write_hits                           0                       # DTB write hits
system.cpu.dtb.write_misses                         0                       # DTB write misses
system.cpu.dtb.flush_tlb                            0                       # Number of times complete TLB was flushed
system.cpu.dtb.flush_tlb_mva                        0                       # Number of times TLB was flushed by MVA
system.cpu.dtb.flush_tlb_mva_asid                   0                       # Number of times TLB was flushed by MVA & ASID
system.cpu.dtb.flush_tlb_asid                       0                       # Number of times TLB was flushed by ASID
system.cpu.dtb.flush_entries                        0                       # Number of entries that have been flushed from TLB
system.cpu.dtb.align_faults                         0                       # Number of TLB faults due to alignment restrictions
system.cpu.dtb.prefetch_faults                      0                       # Number of TLB faults due to prefetch
system.cpu.dtb.domain_faults                        0                       # Number of TLB faults due to domain restrictions
system.cpu.dtb.perms_faults                         0                       # Number of TLB faults due to permissions restrictions
system.cpu.dtb.read_accesses                        0                       # DTB read accesses
system.cpu.dtb.write_accesses                       0                       # DTB write accesses
system.cpu.dtb.inst_accesses                        0                       # ITB inst accesses
system.cpu.dtb.hits                                 0                       # DTB hits
system.cpu.dtb.misses                               0                       # DTB misses
system.cpu.dtb.accesses                             0                       # DTB accesses
system.cpu.istage2_mmu.stage2_tlb.walker.pwrStateResidencyTicks::UNDEFINED   6508692500                       # Cumulative time (in ticks) in various power states
system.cpu.istage2_mmu.stage2_tlb.walker.walks            0                       # Table walker walks requested
system.cpu.istage2_mmu.stage2_tlb.walker.walkRequestOrigin_Requested::Data            0                       # Table walker requests started/completed, data/inst
system.cpu.istage2_mmu.stage2_tlb.walker.walkRequestOrigin_Requested::Inst            0                       # Table walker requests started/completed, data/inst
system.cpu.istage2_mmu.stage2_tlb.walker.walkRequestOrigin_Requested::total            0                       # Table walker requests started/completed, data/inst
system.cpu.istage2_mmu.stage2_tlb.walker.walkRequestOrigin_Completed::Data            0                       # Table walker requests started/completed, data/inst
system.cpu.istage2_mmu.stage2_tlb.walker.walkRequestOrigin_Completed::Inst            0                       # Table walker requests started/completed, data/inst
system.cpu.istage2_mmu.stage2_tlb.walker.walkRequestOrigin_Completed::total            0                       # Table walker requests started/completed, data/inst
system.cpu.istage2_mmu.stage2_tlb.walker.walkRequestOrigin::total            0                       # Table walker requests started/completed, data/inst
system.cpu.istage2_mmu.stage2_tlb.inst_hits            0                       # ITB inst hits
system.cpu.istage2_mmu.stage2_tlb.inst_misses            0                       # ITB inst misses
system.cpu.istage2_mmu.stage2_tlb.read_hits            0                       # DTB read hits
system.cpu.istage2_mmu.stage2_tlb.read_misses            0                       # DTB read misses
system.cpu.istage2_mmu.stage2_tlb.write_hits            0                       # DTB write hits
system.cpu.istage2_mmu.stage2_tlb.write_misses            0                       # DTB write misses
system.cpu.istage2_mmu.stage2_tlb.flush_tlb            0                       # Number of times complete TLB was flushed
system.cpu.istage2_mmu.stage2_tlb.flush_tlb_mva            0                       # Number of times TLB was flushed by MVA
system.cpu.istage2_mmu.stage2_tlb.flush_tlb_mva_asid            0                       # Number of times TLB was flushed by MVA & ASID
system.cpu.istage2_mmu.stage2_tlb.flush_tlb_asid            0                       # Number of times TLB was flushed by ASID
system.cpu.istage2_mmu.stage2_tlb.flush_entries            0                       # Number of entries that have been flushed from TLB
system.cpu.istage2_mmu.stage2_tlb.align_faults            0                       # Number of TLB faults due to alignment restrictions
system.cpu.istage2_mmu.stage2_tlb.prefetch_faults            0                       # Number of TLB faults due to prefetch
system.cpu.istage2_mmu.stage2_tlb.domain_faults            0                       # Number of TLB faults due to domain restrictions
system.cpu.istage2_mmu.stage2_tlb.perms_faults            0                       # Number of TLB faults due to permissions restrictions
system.cpu.istage2_mmu.stage2_tlb.read_accesses            0                       # DTB read accesses
system.cpu.istage2_mmu.stage2_tlb.write_accesses            0                       # DTB write accesses
system.cpu.istage2_mmu.stage2_tlb.inst_accesses            0                       # ITB inst accesses
system.cpu.istage2_mmu.stage2_tlb.hits              0                       # DTB hits
system.cpu.istage2_mmu.stage2_tlb.misses            0                       # DTB misses
system.cpu.istage2_mmu.stage2_tlb.accesses            0                       # DTB accesses
system.cpu.itb.walker.pwrStateResidencyTicks::UNDEFINED   6508692500                       # Cumulative time (in ticks) in various power states
system.cpu.itb.walker.walks                         0                       # Table walker walks requested
system.cpu.itb.walker.walkRequestOrigin_Requested::Data            0                       # Table walker requests started/completed, data/inst
system.cpu.itb.walker.walkRequestOrigin_Requested::Inst            0                       # Table walker requests started/completed, data/inst
system.cpu.itb.walker.walkRequestOrigin_Requested::total            0                       # Table walker requests started/completed, data/inst
system.cpu.itb.walker.walkRequestOrigin_Completed::Data            0                       # Table walker requests started/completed, data/inst
system.cpu.itb.walker.walkRequestOrigin_Completed::Inst            0                       # Table walker requests started/completed, data/inst
system.cpu.itb.walker.walkRequestOrigin_Completed::total            0                       # Table walker requests started/completed, data/inst
system.cpu.itb.walker.walkRequestOrigin::total            0                       # Table walker requests started/completed, data/inst
system.cpu.itb.inst_hits                            0                       # ITB inst hits
system.cpu.itb.inst_misses                          0                       # ITB inst misses
system.cpu.itb.read_hits                            0                       # DTB read hits
system.cpu.itb.read_misses                          0                       # DTB read misses
system.cpu.itb.write_hits                           0                       # DTB write hits
system.cpu.itb.write_misses                         0                       # DTB write misses
system.cpu.itb.flush_tlb                            0                       # Number of times complete TLB was flushed
system.cpu.itb.flush_tlb_mva                        0                       # Number of times TLB was flushed by MVA
system.cpu.itb.flush_tlb_mva_asid                   0                       # Number of times TLB was flushed by MVA & ASID
system.cpu.itb.flush_tlb_asid                       0                       # Number of times TLB was flushed by ASID
system.cpu.itb.flush_entries                        0                       # Number of entries that have been flushed from TLB
system.cpu.itb.align_faults                         0                       # Number of TLB faults due to alignment restrictions
system.cpu.itb.prefetch_faults                      0                       # Number of TLB faults due to prefetch
system.cpu.itb.domain_faults                        0                       # Number of TLB faults due to domain restrictions
system.cpu.itb.perms_faults                         0                       # Number of TLB faults due to permissions restrictions
system.cpu.itb.read_accesses                        0                       # DTB read accesses
system.cpu.itb.write_accesses                       0                       # DTB write accesses
system.cpu.itb.inst_accesses                        0                       # ITB inst accesses
system.cpu.itb.hits                                 0                       # DTB hits
system.cpu.itb.misses                               0                       # DTB misses
system.cpu.itb.accesses                             0                       # DTB accesses
system.cpu.workload.numSyscalls                    11                       # Number of system calls
system.cpu.pwrStateResidencyTicks::ON      6508692500                       # Cumulative time (in ticks) in various power states
system.cpu.numCycles                         13017386                       # number of cpu cycles simulated
system.cpu.numWorkItemsStarted                      0                       # number of work items this cpu started
system.cpu.numWorkItemsCompleted                    0                       # number of work items this cpu completed
system.cpu.fetch.icacheStallCycles            3015952                       # Number of cycles fetch is stalled on an Icache miss
system.cpu.fetch.Insts                       20211585                       # Number of instructions fetch has processed
system.cpu.fetch.Branches                     3362037                       # Number of branches that fetch encountered
system.cpu.fetch.predictedBranches            1946011                       # Number of branches that fetch has predicted taken
system.cpu.fetch.Cycles                       9950299                       # Number of cycles fetch has run and was not squashing or blocked
system.cpu.fetch.SquashCycles                    1802                       # Number of cycles fetch has spent squashing
system.cpu.fetch.TlbCycles                          2                       # Number of cycles fetch has spent waiting for tlb
system.cpu.fetch.MiscStallCycles                    5                       # Number of cycles fetch has spent waiting on interrupts, or bad addresses, or out of MSHRs
system.cpu.fetch.PendingTrapStallCycles           347                       # Number of stall cycles due to pending traps
system.cpu.fetch.IcacheWaitRetryStallCycles           42                       # Number of stall cycles due to full MSHR
system.cpu.fetch.CacheLines                   3004931                       # Number of cache lines fetched
system.cpu.fetch.IcacheSquashes                   546                       # Number of outstanding Icache misses that were squashed
system.cpu.fetch.rateDist::samples           12967548                       # Number of instructions fetched each cycle (Total)
system.cpu.fetch.rateDist::mean              1.558945                       # Number of instructions fetched each cycle (Total)
system.cpu.fetch.rateDist::stdev             2.476130                       # Number of instructions fetched each cycle (Total)
system.cpu.fetch.rateDist::underflows               0      0.00%      0.00% # Number of instructions fetched each cycle (Total)
system.cpu.fetch.rateDist::0                  8172680     63.02%     63.02% # Number of instructions fetched each cycle (Total)
system.cpu.fetch.rateDist::1                   693556      5.35%     68.37% # Number of instructions fetched each cycle (Total)
system.cpu.fetch.rateDist::2                   698532      5.39%     73.76% # Number of instructions fetched each cycle (Total)
system.cpu.fetch.rateDist::3                   721477      5.56%     79.32% # Number of instructions fetched each cycle (Total)
system.cpu.fetch.rateDist::4                   590976      4.56%     83.88% # Number of instructions fetched each cycle (Total)
system.cpu.fetch.rateDist::5                   599724      4.62%     88.51% # Number of instructions fetched each cycle (Total)
system.cpu.fetch.rateDist::6                   547212      4.22%     92.72% # Number of instructions fetched each cycle (Total)
system.cpu.fetch.rateDist::7                   232287      1.79%     94.52% # Number of instructions fetched each cycle (Total)
system.cpu.fetch.rateDist::8                   711104      5.48%    100.00% # Number of instructions fetched each cycle (Total)
system.cpu.fetch.rateDist::overflows                0      0.00%    100.00% # Number of instructions fetched each cycle (Total)
system.cpu.fetch.rateDist::min_value                0                       # Number of instructions fetched each cycle (Total)
system.cpu.fetch.rateDist::max_value                8                       # Number of instructions fetched each cycle (Total)
system.cpu.fetch.rateDist::total             12967548                       # Number of instructions fetched each cycle (Total)
system.cpu.fetch.branchRate                  0.258273                       # Number of branch fetches per cycle
system.cpu.fetch.rate                        1.552661                       # Number of inst fetches per cycle
system.cpu.decode.IdleCycles                   884980                       # Number of cycles decode is idle
system.cpu.decode.BlockedCycles               9555514                       # Number of cycles decode is blocked
system.cpu.decode.RunCycles                      2421                       # Number of cycles decode is running
system.cpu.decode.UnblockCycles               2523978                       # Number of cycles decode is unblocking
system.cpu.decode.SquashCycles                    655                       # Number of cycles decode is squashing
system.cpu.decode.BranchResolved              1444888                       # Number of times decode resolved a branch
system.cpu.decode.BranchMispred                   252                       # Number of times decode detected a branch misprediction
system.cpu.decode.DecodedInsts               20202298                       # Number of instructions handled by decode
system.cpu.decode.SquashedInsts                   736                       # Number of squashed instructions handled by decode
system.cpu.rename.SquashCycles                    655                       # Number of cycles rename is squashing
system.cpu.rename.IdleCycles                  1580864                       # Number of cycles rename is idle
system.cpu.rename.BlockCycles                 1527577                       # Number of cycles rename is blocking
system.cpu.rename.serializeStallCycles           2116                       # count of cycles rename stalled for serializing inst
system.cpu.rename.RunCycles                   1809196                       # Number of cycles rename is running
system.cpu.rename.UnblockCycles               8047140                       # Number of cycles rename is unblocking
system.cpu.rename.RenamedInsts               20200092                       # Number of instructions processed by rename
system.cpu.rename.ROBFullEvents                    12                       # Number of times rename has blocked due to ROB full
system.cpu.rename.IQFullEvents                7782536                       # Number of times rename has blocked due to IQ full
system.cpu.rename.SQFullEvents                  89700                       # Number of times rename has blocked due to SQ full
system.cpu.rename.RenamedOperands            26170138                       # Number of destination operands rename has renamed
system.cpu.rename.RenameLookups              93454404                       # Number of register rename lookups that rename has made
system.cpu.rename.int_rename_lookups         26647163                       # Number of integer rename lookups
system.cpu.rename.fp_rename_lookups                16                       # Number of floating rename lookups
system.cpu.rename.CommittedMaps              26164057                       # Number of HB maps that are committed
system.cpu.rename.UndoneMaps                     6080                       # Number of HB maps that are undone due to squashing
system.cpu.rename.serializingInsts                 33                       # count of serializing insts renamed
system.cpu.rename.tempSerializingInsts             32                       # count of temporary serializing insts renamed
system.cpu.rename.skidInsts                  13211302                       # count of insts added to the skid buffer
system.cpu.memDep0.insertedLoads              2803254                       # Number of loads inserted to the mem dependence unit.
system.cpu.memDep0.insertedStores              702470                       # Number of stores inserted to the mem dependence unit.
system.cpu.memDep0.conflictingLoads            400236                       # Number of conflicting loads.
system.cpu.memDep0.conflictingStores               79                       # Number of conflicting stores.
system.cpu.iq.iqInstsAdded                   20198423                       # Number of instructions added to the IQ (excludes non-spec)
system.cpu.iq.iqNonSpecInstsAdded                  48                       # Number of non-speculative instructions added to the IQ
system.cpu.iq.iqInstsIssued                  20197528                       # Number of instructions issued
system.cpu.iq.iqSquashedInstsIssued                 1                       # Number of squashed instructions issued
system.cpu.iq.iqSquashedInstsExamined            3758                       # Number of squashed instructions iterated over during squash; mainly for profiling
system.cpu.iq.iqSquashedOperandsExamined         7008                       # Number of squashed operands that are examined and possibly removed from graph
system.cpu.iq.iqSquashedNonSpecRemoved              2                       # Number of squashed non-spec instructions that were removed
system.cpu.iq.issued_per_cycle::samples      12967548                       # Number of insts issued each cycle
system.cpu.iq.issued_per_cycle::mean         1.557544                       # Number of insts issued each cycle
system.cpu.iq.issued_per_cycle::stdev        1.074391                       # Number of insts issued each cycle
system.cpu.iq.issued_per_cycle::underflows            0      0.00%      0.00% # Number of insts issued each cycle
system.cpu.iq.issued_per_cycle::0             1855268     14.31%     14.31% # Number of insts issued each cycle
system.cpu.iq.issued_per_cycle::1             5120953     39.49%     53.80% # Number of insts issued each cycle
system.cpu.iq.issued_per_cycle::2             3682756     28.40%     82.20% # Number of insts issued each cycle
system.cpu.iq.issued_per_cycle::3             1673450     12.90%     95.10% # Number of insts issued each cycle
system.cpu.iq.issued_per_cycle::4              484958      3.74%     98.84% # Number of insts issued each cycle
system.cpu.iq.issued_per_cycle::5              150111      1.16%    100.00% # Number of insts issued each cycle
system.cpu.iq.issued_per_cycle::6                  40      0.00%    100.00% # Number of insts issued each cycle
system.cpu.iq.issued_per_cycle::7                  10      0.00%    100.00% # Number of insts issued each cycle
system.cpu.iq.issued_per_cycle::8                   2      0.00%    100.00% # Number of insts issued each cycle
system.cpu.iq.issued_per_cycle::overflows            0      0.00%    100.00% # Number of insts issued each cycle
system.cpu.iq.issued_per_cycle::min_value            0                       # Number of insts issued each cycle
system.cpu.iq.issued_per_cycle::max_value            8                       # Number of insts issued each cycle
system.cpu.iq.issued_per_cycle::total        12967548                       # Number of insts issued each cycle
system.cpu.iq.fu_full::No_OpClass                   0      0.00%      0.00% # attempts to use FU when none available
system.cpu.iq.fu_full::IntAlu                       0      0.00%      0.00% # attempts to use FU when none available
system.cpu.iq.fu_full::IntMult                      0      0.00%      0.00% # attempts to use FU when none available
system.cpu.iq.fu_full::IntDiv                       0      0.00%      0.00% # attempts to use FU when none available
system.cpu.iq.fu_full::FloatAdd                     0      0.00%      0.00% # attempts to use FU when none available
system.cpu.iq.fu_full::FloatCmp                     0      0.00%      0.00% # attempts to use FU when none available
system.cpu.iq.fu_full::FloatCvt                     0      0.00%      0.00% # attempts to use FU when none available
system.cpu.iq.fu_full::FloatMult                    0      0.00%      0.00% # attempts to use FU when none available
system.cpu.iq.fu_full::FloatMultAcc                 0      0.00%      0.00% # attempts to use FU when none available
system.cpu.iq.fu_full::FloatDiv                     0      0.00%      0.00% # attempts to use FU when none available
system.cpu.iq.fu_full::FloatMisc                    0      0.00%      0.00% # attempts to use FU when none available
system.cpu.iq.fu_full::FloatSqrt                    0      0.00%      0.00% # attempts to use FU when none available
system.cpu.iq.fu_full::SimdAdd                      0      0.00%      0.00% # attempts to use FU when none available
system.cpu.iq.fu_full::SimdAddAcc                   0      0.00%      0.00% # attempts to use FU when none available
system.cpu.iq.fu_full::SimdAlu                      0      0.00%      0.00% # attempts to use FU when none available
system.cpu.iq.fu_full::SimdCmp                      0      0.00%      0.00% # attempts to use FU when none available
system.cpu.iq.fu_full::SimdCvt                      0      0.00%      0.00% # attempts to use FU when none available
system.cpu.iq.fu_full::SimdMisc                     0      0.00%      0.00% # attempts to use FU when none available
system.cpu.iq.fu_full::SimdMult                     0      0.00%      0.00% # attempts to use FU when none available
system.cpu.iq.fu_full::SimdMultAcc                  0      0.00%      0.00% # attempts to use FU when none available
system.cpu.iq.fu_full::SimdShift                    0      0.00%      0.00% # attempts to use FU when none available
system.cpu.iq.fu_full::SimdShiftAcc                 0      0.00%      0.00% # attempts to use FU when none available
system.cpu.iq.fu_full::SimdSqrt                     0      0.00%      0.00% # attempts to use FU when none available
system.cpu.iq.fu_full::SimdFloatAdd                 0      0.00%      0.00% # attempts to use FU when none available
system.cpu.iq.fu_full::SimdFloatAlu                 0      0.00%      0.00% # attempts to use FU when none available
system.cpu.iq.fu_full::SimdFloatCmp                 0      0.00%      0.00% # attempts to use FU when none available
system.cpu.iq.fu_full::SimdFloatCvt                 0      0.00%      0.00% # attempts to use FU when none available
system.cpu.iq.fu_full::SimdFloatDiv                 0      0.00%      0.00% # attempts to use FU when none available
system.cpu.iq.fu_full::SimdFloatMisc                0      0.00%      0.00% # attempts to use FU when none available
system.cpu.iq.fu_full::SimdFloatMult                0      0.00%      0.00% # attempts to use FU when none available
system.cpu.iq.fu_full::SimdFloatMultAcc             0      0.00%      0.00% # attempts to use FU when none available
system.cpu.iq.fu_full::SimdFloatSqrt                0      0.00%      0.00% # attempts to use FU when none available
system.cpu.iq.fu_full::MemRead                     33     33.33%     33.33% # attempts to use FU when none available
system.cpu.iq.fu_full::MemWrite                    64     64.65%     97.98% # attempts to use FU when none available
system.cpu.iq.fu_full::FloatMemRead                 0      0.00%     97.98% # attempts to use FU when none available
system.cpu.iq.fu_full::FloatMemWrite                2      2.02%    100.00% # attempts to use FU when none available
system.cpu.iq.fu_full::IprAccess                    0      0.00%    100.00% # attempts to use FU when none available
system.cpu.iq.fu_full::InstPrefetch                 0      0.00%    100.00% # attempts to use FU when none available
system.cpu.iq.FU_type_0::No_OpClass                 7      0.00%      0.00% # Type of FU issued
system.cpu.iq.FU_type_0::IntAlu              16691916     82.64%     82.64% # Type of FU issued
system.cpu.iq.FU_type_0::IntMult                   63      0.00%     82.64% # Type of FU issued
system.cpu.iq.FU_type_0::IntDiv                     0      0.00%     82.64% # Type of FU issued
system.cpu.iq.FU_type_0::FloatAdd                   0      0.00%     82.64% # Type of FU issued
system.cpu.iq.FU_type_0::FloatCmp                   0      0.00%     82.64% # Type of FU issued
system.cpu.iq.FU_type_0::FloatCvt                   0      0.00%     82.64% # Type of FU issued
system.cpu.iq.FU_type_0::FloatMult                  0      0.00%     82.64% # Type of FU issued
system.cpu.iq.FU_type_0::FloatMultAcc               0      0.00%     82.64% # Type of FU issued
system.cpu.iq.FU_type_0::FloatDiv                   0      0.00%     82.64% # Type of FU issued
system.cpu.iq.FU_type_0::FloatMisc                  0      0.00%     82.64% # Type of FU issued
system.cpu.iq.FU_type_0::FloatSqrt                  0      0.00%     82.64% # Type of FU issued
system.cpu.iq.FU_type_0::SimdAdd                    0      0.00%     82.64% # Type of FU issued
system.cpu.iq.FU_type_0::SimdAddAcc                 0      0.00%     82.64% # Type of FU issued
system.cpu.iq.FU_type_0::SimdAlu                    0      0.00%     82.64% # Type of FU issued
system.cpu.iq.FU_type_0::SimdCmp                    0      0.00%     82.64% # Type of FU issued
system.cpu.iq.FU_type_0::SimdCvt                    0      0.00%     82.64% # Type of FU issued
system.cpu.iq.FU_type_0::SimdMisc                   0      0.00%     82.64% # Type of FU issued
system.cpu.iq.FU_type_0::SimdMult                   0      0.00%     82.64% # Type of FU issued
system.cpu.iq.FU_type_0::SimdMultAcc                0      0.00%     82.64% # Type of FU issued
system.cpu.iq.FU_type_0::SimdShift                  0      0.00%     82.64% # Type of FU issued
system.cpu.iq.FU_type_0::SimdShiftAcc               0      0.00%     82.64% # Type of FU issued
system.cpu.iq.FU_type_0::SimdSqrt                   0      0.00%     82.64% # Type of FU issued
system.cpu.iq.FU_type_0::SimdFloatAdd               0      0.00%     82.64% # Type of FU issued
system.cpu.iq.FU_type_0::SimdFloatAlu               0      0.00%     82.64% # Type of FU issued
system.cpu.iq.FU_type_0::SimdFloatCmp               0      0.00%     82.64% # Type of FU issued
system.cpu.iq.FU_type_0::SimdFloatCvt               0      0.00%     82.64% # Type of FU issued
system.cpu.iq.FU_type_0::SimdFloatDiv               0      0.00%     82.64% # Type of FU issued
system.cpu.iq.FU_type_0::SimdFloatMisc              1      0.00%     82.64% # Type of FU issued
system.cpu.iq.FU_type_0::SimdFloatMult              0      0.00%     82.64% # Type of FU issued
system.cpu.iq.FU_type_0::SimdFloatMultAcc            0      0.00%     82.64% # Type of FU issued
system.cpu.iq.FU_type_0::SimdFloatSqrt              0      0.00%     82.64% # Type of FU issued
system.cpu.iq.FU_type_0::MemRead              2803173     13.88%     96.52% # Type of FU issued
system.cpu.iq.FU_type_0::MemWrite              702352      3.48%    100.00% # Type of FU issued
system.cpu.iq.FU_type_0::FloatMemRead               0      0.00%    100.00% # Type of FU issued
system.cpu.iq.FU_type_0::FloatMemWrite             16      0.00%    100.00% # Type of FU issued
system.cpu.iq.FU_type_0::IprAccess                  0      0.00%    100.00% # Type of FU issued
system.cpu.iq.FU_type_0::InstPrefetch               0      0.00%    100.00% # Type of FU issued
system.cpu.iq.FU_type_0::total               20197528                       # Type of FU issued
system.cpu.iq.rate                           1.551581                       # Inst issue rate
system.cpu.iq.fu_busy_cnt                          99                       # FU busy when requested
system.cpu.iq.fu_busy_rate                   0.000005                       # FU busy rate (busy events/executed inst)
system.cpu.iq.int_inst_queue_reads           53362670                       # Number of integer instruction queue reads
system.cpu.iq.int_inst_queue_writes          20202238                       # Number of integer instruction queue writes
system.cpu.iq.int_inst_queue_wakeup_accesses     20196510                       # Number of integer instruction queue wakeup accesses
system.cpu.iq.fp_inst_queue_reads                  34                       # Number of floating instruction queue reads
system.cpu.iq.fp_inst_queue_writes                 16                       # Number of floating instruction queue writes
system.cpu.iq.fp_inst_queue_wakeup_accesses           16                       # Number of floating instruction queue wakeup accesses
system.cpu.iq.vec_inst_queue_reads                  0                       # Number of vector instruction queue reads
system.cpu.iq.vec_inst_queue_writes                 0                       # Number of vector instruction queue writes
system.cpu.iq.vec_inst_queue_wakeup_accesses            0                       # Number of vector instruction queue wakeup accesses
system.cpu.iq.int_alu_accesses               20197602                       # Number of integer alu accesses
system.cpu.iq.fp_alu_accesses                      18                       # Number of floating point alu accesses
system.cpu.iq.vec_alu_accesses                      0                       # Number of vector alu accesses
system.cpu.iew.lsq.thread0.forwLoads           600048                       # Number of loads that had data forwarded from stores
system.cpu.iew.lsq.thread0.invAddrLoads             0                       # Number of loads ignored due to an invalid address
system.cpu.iew.lsq.thread0.squashedLoads          800                       # Number of loads squashed
system.cpu.iew.lsq.thread0.ignoredResponses            3                       # Number of memory responses ignored because the instruction is squashed
system.cpu.iew.lsq.thread0.memOrderViolation           25                       # Number of memory ordering violations
system.cpu.iew.lsq.thread0.squashedStores          319                       # Number of stores squashed
system.cpu.iew.lsq.thread0.invAddrSwpfs             0                       # Number of software prefetches ignored due to an invalid address
system.cpu.iew.lsq.thread0.blockedLoads             0                       # Number of blocked loads due to partial load-store forwarding
system.cpu.iew.lsq.thread0.rescheduledLoads            7                       # Number of loads that were rescheduled
system.cpu.iew.lsq.thread0.cacheBlocked            22                       # Number of times an access to memory failed due to the cache being blocked
system.cpu.iew.iewIdleCycles                        0                       # Number of cycles IEW is idle
system.cpu.iew.iewSquashCycles                    655                       # Number of cycles IEW is squashing
system.cpu.iew.iewBlockCycles                  413618                       # Number of cycles IEW is blocking
system.cpu.iew.iewUnblockCycles                 14999                       # Number of cycles IEW is unblocking
system.cpu.iew.iewDispatchedInsts            20198471                       # Number of instructions dispatched to IQ
system.cpu.iew.iewDispSquashedInsts               460                       # Number of squashed instructions skipped by dispatch
system.cpu.iew.iewDispLoadInsts               2803254                       # Number of dispatched load instructions
system.cpu.iew.iewDispStoreInsts               702470                       # Number of dispatched store instructions
system.cpu.iew.iewDispNonSpecInsts                 30                       # Number of dispatched non-speculative instructions
system.cpu.iew.iewIQFullEvents                   2413                       # Number of times the IQ has become full, causing a stall
system.cpu.iew.iewLSQFullEvents                    31                       # Number of times the LSQ has become full, causing a stall
system.cpu.iew.memOrderViolationEvents             25                       # Number of memory order violations
system.cpu.iew.predictedTakenIncorrect            196                       # Number of branches that were predicted taken incorrectly
system.cpu.iew.predictedNotTakenIncorrect          446                       # Number of branches that were predicted not taken incorrectly
system.cpu.iew.branchMispredicts                  642                       # Number of branch mispredicts detected at execute
system.cpu.iew.iewExecutedInsts              20196858                       # Number of executed instructions
system.cpu.iew.iewExecLoadInsts               2803030                       # Number of load instructions executed
system.cpu.iew.iewExecSquashedInsts               670                       # Number of squashed instructions skipped in execute
system.cpu.iew.exec_swp                             0                       # number of swp insts executed
system.cpu.iew.exec_nop                             0                       # number of nop insts executed
system.cpu.iew.exec_refs                      3505345                       # number of memory reference insts executed
system.cpu.iew.exec_branches                  3358983                       # Number of branches executed
system.cpu.iew.exec_stores                     702315                       # Number of stores executed
system.cpu.iew.exec_rate                     1.551529                       # Inst execution rate
system.cpu.iew.wb_sent                       20196563                       # cumulative count of insts sent to commit
system.cpu.iew.wb_count                      20196526                       # cumulative count of insts written-back
system.cpu.iew.wb_producers                  13445427                       # num instructions producing a value
system.cpu.iew.wb_consumers                  28823489                       # num instructions consuming a value
system.cpu.iew.wb_rate                       1.551504                       # insts written-back per cycle
system.cpu.iew.wb_fanout                     0.466475                       # average fanout of values written-back
system.cpu.commit.commitSquashedInsts            3808                       # The number of squashed insts skipped by commit
system.cpu.commit.commitNonSpecStalls              46                       # The number of times commit has been forced to stall to communicate backwards
system.cpu.commit.branchMispredicts               621                       # The number of times a branch was mispredicted
system.cpu.commit.committed_per_cycle::samples     12966783                       # Number of insts commited each cycle
system.cpu.commit.committed_per_cycle::mean     1.557419                       # Number of insts commited each cycle
system.cpu.commit.committed_per_cycle::stdev     1.236771                       # Number of insts commited each cycle
system.cpu.commit.committed_per_cycle::underflows            0      0.00%      0.00% # Number of insts commited each cycle
system.cpu.commit.committed_per_cycle::0      1757322     13.55%     13.55% # Number of insts commited each cycle
system.cpu.commit.committed_per_cycle::1      6437840     49.65%     63.20% # Number of insts commited each cycle
system.cpu.commit.committed_per_cycle::2      2231779     17.21%     80.41% # Number of insts commited each cycle
system.cpu.commit.committed_per_cycle::3      1382969     10.67%     91.08% # Number of insts commited each cycle
system.cpu.commit.committed_per_cycle::4       781490      6.03%     97.11% # Number of insts commited each cycle
system.cpu.commit.committed_per_cycle::5       248133      1.91%     99.02% # Number of insts commited each cycle
system.cpu.commit.committed_per_cycle::6       113044      0.87%     99.89% # Number of insts commited each cycle
system.cpu.commit.committed_per_cycle::7        14130      0.11%    100.00% # Number of insts commited each cycle
system.cpu.commit.committed_per_cycle::8           76      0.00%    100.00% # Number of insts commited each cycle
system.cpu.commit.committed_per_cycle::overflows            0      0.00%    100.00% # Number of insts commited each cycle
system.cpu.commit.committed_per_cycle::min_value            0                       # Number of insts commited each cycle
system.cpu.commit.committed_per_cycle::max_value            8                       # Number of insts commited each cycle
system.cpu.commit.committed_per_cycle::total     12966783                       # Number of insts commited each cycle
system.cpu.commit.committedInsts             20192680                       # Number of instructions committed
system.cpu.commit.committedOps               20194712                       # Number of ops (including micro ops) committed
system.cpu.commit.swp_count                         0                       # Number of s/w prefetches committed
system.cpu.commit.refs                        3504605                       # Number of memory references committed
system.cpu.commit.loads                       2802454                       # Number of loads committed
system.cpu.commit.membars                          18                       # Number of memory barriers committed
system.cpu.commit.branches                    3358669                       # Number of branches committed
system.cpu.commit.vec_insts                         0                       # Number of committed Vector instructions.
system.cpu.commit.fp_insts                         16                       # Number of committed floating point instructions.
system.cpu.commit.int_insts                  18236721                       # Number of committed integer instructions.
system.cpu.commit.function_calls               500258                       # Number of function calls committed.
system.cpu.commit.op_class_0::No_OpClass            0      0.00%      0.00% # Class of committed instruction
system.cpu.commit.op_class_0::IntAlu         16690046     82.65%     82.65% # Class of committed instruction
system.cpu.commit.op_class_0::IntMult              60      0.00%     82.65% # Class of committed instruction
system.cpu.commit.op_class_0::IntDiv                0      0.00%     82.65% # Class of committed instruction
system.cpu.commit.op_class_0::FloatAdd              0      0.00%     82.65% # Class of committed instruction
system.cpu.commit.op_class_0::FloatCmp              0      0.00%     82.65% # Class of committed instruction
system.cpu.commit.op_class_0::FloatCvt              0      0.00%     82.65% # Class of committed instruction
system.cpu.commit.op_class_0::FloatMult             0      0.00%     82.65% # Class of committed instruction
[...]
system.l2.ReadExReq_accesses::total             12567                       # number of ReadExReq accesses(hits+misses)
system.l2.ReadCleanReq_accesses::.cpu.inst          575                       # number of ReadCleanReq accesses(hits+misses)
system.l2.ReadCleanReq_accesses::total            575                       # number of ReadCleanReq accesses(hits+misses)
system.l2.ReadSharedReq_accesses::.cpu.data        18919                       # number of ReadSharedReq accesses(hits+misses)
system.l2.ReadSharedReq_accesses::total         18919                       # number of ReadSharedReq accesses(hits+misses)
system.l2.demand_accesses::.cpu.inst              575                       # number of demand (read+write) accesses
system.l2.demand_accesses::.cpu.data            31486                       # number of demand (read+write) accesses
system.l2.demand_accesses::total                32061                       # number of demand (read+write) accesses
system.l2.overall_accesses::.cpu.inst             575                       # number of overall (read+write) accesses
system.l2.overall_accesses::.cpu.data           31486                       # number of overall (read+write) accesses
system.l2.overall_accesses::total               32061                       # number of overall (read+write) accesses
system.l2.ReadExReq_miss_rate::.cpu.data     0.999045                       # miss rate for ReadExReq accesses
system.l2.ReadExReq_miss_rate::total         0.999045                       # miss rate for ReadExReq accesses
system.l2.ReadCleanReq_miss_rate::.cpu.inst     0.904348                       # miss rate for ReadCleanReq accesses
system.l2.ReadCleanReq_miss_rate::total      0.904348                       # miss rate for ReadCleanReq accesses
system.l2.ReadSharedReq_miss_rate::.cpu.data     0.006501                       # miss rate for ReadSharedReq accesses
system.l2.ReadSharedReq_miss_rate::total     0.006501                       # miss rate for ReadSharedReq accesses
system.l2.demand_miss_rate::.cpu.inst        0.904348                       # miss rate for demand accesses
system.l2.demand_miss_rate::.cpu.data        0.402655                       # miss rate for demand accesses
system.l2.demand_miss_rate::total            0.411653                       # miss rate for demand accesses
system.l2.overall_miss_rate::.cpu.inst       0.904348                       # miss rate for overall accesses
system.l2.overall_miss_rate::.cpu.data       0.402655                       # miss rate for overall accesses
system.l2.overall_miss_rate::total           0.411653                       # miss rate for overall accesses
system.l2.ReadExReq_avg_miss_latency::.cpu.data 90606.650737                       # average ReadExReq miss latency
system.l2.ReadExReq_avg_miss_latency::total 90606.650737                       # average ReadExReq miss latency
system.l2.ReadCleanReq_avg_miss_latency::.cpu.inst 86916.346154                       # average ReadCleanReq miss latency
system.l2.ReadCleanReq_avg_miss_latency::total 86916.346154                       # average ReadCleanReq miss latency
system.l2.ReadSharedReq_avg_miss_latency::.cpu.data 91166.666667                       # average ReadSharedReq miss latency
system.l2.ReadSharedReq_avg_miss_latency::total 91166.666667                       # average ReadSharedReq miss latency
system.l2.demand_avg_miss_latency::.cpu.inst 86916.346154                       # average overall miss latency
system.l2.demand_avg_miss_latency::.cpu.data 90612.083925                       # average overall miss latency
system.l2.demand_avg_miss_latency::total 90466.472193                       # average overall miss latency
system.l2.overall_avg_miss_latency::.cpu.inst 86916.346154                       # average overall miss latency
system.l2.overall_avg_miss_latency::.cpu.data 90612.083925                       # average overall miss latency
system.l2.overall_avg_miss_latency::total 90466.472193                       # average overall miss latency
system.l2.blocked_cycles::no_mshrs                  0                       # number of cycles access was blocked
system.l2.blocked_cycles::no_targets                0                       # number of cycles access was blocked
system.l2.blocked::no_mshrs                         0                       # number of cycles access was blocked
system.l2.blocked::no_targets                       0                       # number of cycles access was blocked
system.l2.avg_blocked_cycles::no_mshrs            nan                       # average number of cycles each access was blocked
system.l2.avg_blocked_cycles::no_targets          nan                       # average number of cycles each access was blocked
system.l2.ReadSharedReq_mshr_hits::.cpu.data            6                       # number of ReadSharedReq MSHR hits
system.l2.ReadSharedReq_mshr_hits::total            6                       # number of ReadSharedReq MSHR hits
system.l2.demand_mshr_hits::.cpu.data               6                       # number of demand (read+write) MSHR hits
system.l2.demand_mshr_hits::total                   6                       # number of demand (read+write) MSHR hits
system.l2.overall_mshr_hits::.cpu.data              6                       # number of overall MSHR hits
system.l2.overall_mshr_hits::total                  6                       # number of overall MSHR hits
system.l2.ReadExReq_mshr_misses::.cpu.data        12555                       # number of ReadExReq MSHR misses
system.l2.ReadExReq_mshr_misses::total          12555                       # number of ReadExReq MSHR misses
system.l2.ReadCleanReq_mshr_misses::.cpu.inst          520                       # number of ReadCleanReq MSHR misses
system.l2.ReadCleanReq_mshr_misses::total          520                       # number of ReadCleanReq MSHR misses
system.l2.ReadSharedReq_mshr_misses::.cpu.data          117                       # number of ReadSharedReq MSHR misses
system.l2.ReadSharedReq_mshr_misses::total          117                       # number of ReadSharedReq MSHR misses
system.l2.demand_mshr_misses::.cpu.inst           520                       # number of demand (read+write) MSHR misses
system.l2.demand_mshr_misses::.cpu.data         12672                       # number of demand (read+write) MSHR misses
system.l2.demand_mshr_misses::total             13192                       # number of demand (read+write) MSHR misses
system.l2.overall_mshr_misses::.cpu.inst          520                       # number of overall MSHR misses
system.l2.overall_mshr_misses::.cpu.data        12672                       # number of overall MSHR misses
system.l2.overall_mshr_misses::total            13192                       # number of overall MSHR misses
system.l2.ReadExReq_mshr_miss_latency::.cpu.data   1012016500                       # number of ReadExReq MSHR miss cycles
system.l2.ReadExReq_mshr_miss_latency::total   1012016500                       # number of ReadExReq MSHR miss cycles
system.l2.ReadCleanReq_mshr_miss_latency::.cpu.inst     40016500                       # number of ReadCleanReq MSHR miss cycles
system.l2.ReadCleanReq_mshr_miss_latency::total     40016500                       # number of ReadCleanReq MSHR miss cycles
system.l2.ReadSharedReq_mshr_miss_latency::.cpu.data      9643500                       # number of ReadSharedReq MSHR miss cycles
system.l2.ReadSharedReq_mshr_miss_latency::total      9643500                       # number of ReadSharedReq MSHR miss cycles
system.l2.demand_mshr_miss_latency::.cpu.inst     40016500                       # number of demand (read+write) MSHR miss cycles
system.l2.demand_mshr_miss_latency::.cpu.data   1021660000                       # number of demand (read+write) MSHR miss cycles
system.l2.demand_mshr_miss_latency::total   1061676500                       # number of demand (read+write) MSHR miss cycles
system.l2.overall_mshr_miss_latency::.cpu.inst     40016500                       # number of overall MSHR miss cycles
system.l2.overall_mshr_miss_latency::.cpu.data   1021660000                       # number of overall MSHR miss cycles
system.l2.overall_mshr_miss_latency::total   1061676500                       # number of overall MSHR miss cycles
system.l2.ReadExReq_mshr_miss_rate::.cpu.data     0.999045                       # mshr miss rate for ReadExReq accesses
system.l2.ReadExReq_mshr_miss_rate::total     0.999045                       # mshr miss rate for ReadExReq accesses
system.l2.ReadCleanReq_mshr_miss_rate::.cpu.inst     0.904348                       # mshr miss rate for ReadCleanReq accesses
system.l2.ReadCleanReq_mshr_miss_rate::total     0.904348                       # mshr miss rate for ReadCleanReq accesses
system.l2.ReadSharedReq_mshr_miss_rate::.cpu.data     0.006184                       # mshr miss rate for ReadSharedReq accesses
system.l2.ReadSharedReq_mshr_miss_rate::total     0.006184                       # mshr miss rate for ReadSharedReq accesses
system.l2.demand_mshr_miss_rate::.cpu.inst     0.904348                       # mshr miss rate for demand accesses
system.l2.demand_mshr_miss_rate::.cpu.data     0.402465                       # mshr miss rate for demand accesses
system.l2.demand_mshr_miss_rate::total       0.411466                       # mshr miss rate for demand accesses
system.l2.overall_mshr_miss_rate::.cpu.inst     0.904348                       # mshr miss rate for overall accesses
system.l2.overall_mshr_miss_rate::.cpu.data     0.402465                       # mshr miss rate for overall accesses
system.l2.overall_mshr_miss_rate::total      0.411466                       # mshr miss rate for overall accesses
system.l2.ReadExReq_avg_mshr_miss_latency::.cpu.data 80606.650737                       # average ReadExReq mshr miss latency
system.l2.ReadExReq_avg_mshr_miss_latency::total 80606.650737                       # average ReadExReq mshr miss latency
system.l2.ReadCleanReq_avg_mshr_miss_latency::.cpu.inst 76954.807692                       # average ReadCleanReq mshr miss latency
system.l2.ReadCleanReq_avg_mshr_miss_latency::total 76954.807692                       # average ReadCleanReq mshr miss latency
system.l2.ReadSharedReq_avg_mshr_miss_latency::.cpu.data 82423.076923                       # average ReadSharedReq mshr miss latency
system.l2.ReadSharedReq_avg_mshr_miss_latency::total 82423.076923                       # average ReadSharedReq mshr miss latency
system.l2.demand_avg_mshr_miss_latency::.cpu.inst 76954.807692                       # average overall mshr miss latency
system.l2.demand_avg_mshr_miss_latency::.cpu.data 80623.421717                       # average overall mshr miss latency
system.l2.demand_avg_mshr_miss_latency::total 80478.812917                       # average overall mshr miss latency
system.l2.overall_avg_mshr_miss_latency::.cpu.inst 76954.807692                       # average overall mshr miss latency
system.l2.overall_avg_mshr_miss_latency::.cpu.data 80623.421717                       # average overall mshr miss latency
system.l2.overall_avg_mshr_miss_latency::total 80478.812917                       # average overall mshr miss latency
system.l2.replacements                              0                       # number of replacements
system.membus.snoop_filter.tot_requests         13191                       # Total number of requests made to the snoop filter.
system.membus.snoop_filter.hit_single_requests            0                       # Number of requests hitting in the snoop filter with a single holder of the requested data.
system.membus.snoop_filter.hit_multi_requests            0                       # Number of requests hitting in the snoop filter with multiple (>1) holders of the requested data.
system.membus.snoop_filter.tot_snoops               0                       # Total number of snoops made to the snoop filter.
system.membus.snoop_filter.hit_single_snoops            0                       # Number of snoops hitting in the snoop filter with a single holder of the requested data.
system.membus.snoop_filter.hit_multi_snoops            0                       # Number of snoops hitting in the snoop filter with multiple (>1) holders of the requested data.
system.membus.pwrStateResidencyTicks::UNDEFINED   6508692500                       # Cumulative time (in ticks) in various power states
system.membus.trans_dist::ReadResp                635                       # Transaction distribution
system.membus.trans_dist::ReadExReq             12555                       # Transaction distribution
system.membus.trans_dist::ReadExResp            12555                       # Transaction distribution
system.membus.trans_dist::ReadSharedReq           636                       # Transaction distribution
system.membus.pkt_count_system.l2.mem_side::system.mem_ctrls.port        26381                       # Packet count per connected master and slave (bytes)
system.membus.pkt_count::total                  26381                       # Packet count per connected master and slave (bytes)
system.membus.pkt_size_system.l2.mem_side::system.mem_ctrls.port       844160                       # Cumulative packet size per connected master and slave (bytes)
system.membus.pkt_size::total                  844160                       # Cumulative packet size per connected master and slave (bytes)
system.membus.snoops                                0                       # Total snoops (count)
system.membus.snoopTraffic                          0                       # Total snoop traffic (bytes)
system.membus.snoop_fanout::samples             13191                       # Request fanout histogram
system.membus.snoop_fanout::mean                    0                       # Request fanout histogram
system.membus.snoop_fanout::stdev                   0                       # Request fanout histogram
system.membus.snoop_fanout::underflows              0      0.00%      0.00% # Request fanout histogram
system.membus.snoop_fanout::0                   13191    100.00%    100.00% # Request fanout histogram
system.membus.snoop_fanout::1                       0      0.00%    100.00% # Request fanout histogram
system.membus.snoop_fanout::overflows               0      0.00%    100.00% # Request fanout histogram
system.membus.snoop_fanout::min_value               0                       # Request fanout histogram
system.membus.snoop_fanout::max_value               0                       # Request fanout histogram
system.membus.snoop_fanout::total               13191                       # Request fanout histogram
system.membus.reqLayer0.occupancy            16501500                       # Layer occupancy (ticks)
system.membus.reqLayer0.utilization               0.3                       # Layer utilization (%)
system.membus.respLayer1.occupancy           70183500                       # Layer occupancy (ticks)
system.membus.respLayer1.utilization              1.1                       # Layer utilization (%)
system.tol2bus.snoop_filter.tot_requests        62692                       # Total number of requests made to the snoop filter.
system.tol2bus.snoop_filter.hit_single_requests        30647                       # Number of requests hitting in the snoop filter with a single holder of the requested data.
system.tol2bus.snoop_filter.hit_multi_requests           34                       # Number of requests hitting in the snoop filter with multiple (>1) holders of the requested data.
system.tol2bus.snoop_filter.tot_snoops              0                       # Total number of snoops made to the snoop filter.
system.tol2bus.snoop_filter.hit_single_snoops            0                       # Number of snoops hitting in the snoop filter with a single holder of the requested data.
system.tol2bus.snoop_filter.hit_multi_snoops            0                       # Number of snoops hitting in the snoop filter with multiple (>1) holders of the requested data.
system.tol2bus.pwrStateResidencyTicks::UNDEFINED   6508692500                       # Cumulative time (in ticks) in various power states
system.tol2bus.trans_dist::ReadResp             19492                       # Transaction distribution
system.tol2bus.trans_dist::WritebackDirty        30385                       # Transaction distribution
system.tol2bus.trans_dist::WritebackClean          169                       # Transaction distribution
system.tol2bus.trans_dist::CleanEvict              77                       # Transaction distribution
system.tol2bus.trans_dist::ReadExReq            12567                       # Transaction distribution
system.tol2bus.trans_dist::ReadExResp           12567                       # Transaction distribution
system.tol2bus.trans_dist::ReadCleanReq           575                       # Transaction distribution
system.tol2bus.trans_dist::ReadSharedReq        18919                       # Transaction distribution
system.tol2bus.pkt_count_system.cpu.icache.mem_side::system.l2.cpu_side         1317                       # Packet count per connected master and slave (bytes)
system.tol2bus.pkt_count_system.cpu.dcache.mem_side::system.l2.cpu_side        93434                       # Packet count per connected master and slave (bytes)
system.tol2bus.pkt_count::total                 94751                       # Packet count per connected master and slave (bytes)
system.tol2bus.pkt_size_system.cpu.icache.mem_side::system.l2.cpu_side        47488                       # Cumulative packet size per connected master and slave (bytes)
system.tol2bus.pkt_size_system.cpu.dcache.mem_side::system.l2.cpu_side      3959744                       # Cumulative packet size per connected master and slave (bytes)
system.tol2bus.pkt_size::total                4007232                       # Cumulative packet size per connected master and slave (bytes)
system.tol2bus.snoops                               0                       # Total snoops (count)
system.tol2bus.snoopTraffic                         0                       # Total snoop traffic (bytes)
system.tol2bus.snoop_fanout::samples            32061                       # Request fanout histogram
system.tol2bus.snoop_fanout::mean            0.001560                       # Request fanout histogram
system.tol2bus.snoop_fanout::stdev           0.039461                       # Request fanout histogram
system.tol2bus.snoop_fanout::underflows             0      0.00%      0.00% # Request fanout histogram
system.tol2bus.snoop_fanout::0                  32011     99.84%     99.84% # Request fanout histogram
system.tol2bus.snoop_fanout::1                     50      0.16%    100.00% # Request fanout histogram
system.tol2bus.snoop_fanout::2                      0      0.00%    100.00% # Request fanout histogram
system.tol2bus.snoop_fanout::overflows              0      0.00%    100.00% # Request fanout histogram
system.tol2bus.snoop_fanout::min_value              0                       # Request fanout histogram
system.tol2bus.snoop_fanout::max_value              1                       # Request fanout histogram
system.tol2bus.snoop_fanout::total              32061                       # Request fanout histogram
system.tol2bus.reqLayer0.occupancy           61900000                       # Layer occupancy (ticks)
system.tol2bus.reqLayer0.utilization              1.0                       # Layer utilization (%)
system.tol2bus.respLayer0.occupancy            860498                       # Layer occupancy (ticks)
system.tol2bus.respLayer0.utilization             0.0                       # Layer utilization (%)
system.tol2bus.respLayer1.occupancy          47231994                       # Layer occupancy (ticks)
system.tol2bus.respLayer1.utilization             0.7                       # Layer utilization (%)

---------- End Simulation Statistics   ----------
