
---------- Begin Simulation Statistics ----------
sim_seconds                                  0.021737                       # Number of seconds simulated
sim_ticks                                 21737197000                       # Number of ticks simulated
final_tick                                21772745500                       # Number of ticks from beginning of simulation (restored from checkpoints and never reset)
sim_freq                                 1000000000000                       # Frequency of simulated ticks
host_inst_rate                                 217471                       # Simulator instruction rate (inst/s)
host_op_rate                                   240268                       # Simulator op (including micro ops) rate (op/s)
host_tick_rate                               54017848                       # Simulator tick rate (ticks/s)
host_mem_usage                                 813600                       # Number of bytes of host memory used
host_seconds                                   402.41                       # Real time elapsed on the host
sim_insts                                    87512087                       # Number of instructions simulated
sim_ops                                      96685734                       # Number of ops (including micro ops) simulated
system.voltage_domain.voltage                       1                       # Voltage in Volts
system.clk_domain.clock                          1000                       # Clock period in ticks
system.mem_ctrls.pwrStateResidencyTicks::UNDEFINED  21772745500                       # Cumulative time (in ticks) in various power states
system.mem_ctrls.bytes_read::.cpu.inst           4160                       # Number of bytes read from this memory
system.mem_ctrls.bytes_read::.cpu.data        4312576                       # Number of bytes read from this memory
system.mem_ctrls.bytes_read::total            4316736                       # Number of bytes read from this memory
system.mem_ctrls.bytes_inst_read::.cpu.inst         4160                       # Number of instructions bytes read from this memory
system.mem_ctrls.bytes_inst_read::total          4160                       # Number of instructions bytes read from this memory
system.mem_ctrls.bytes_written::.writebacks      2222144                       # Number of bytes written to this memory
system.mem_ctrls.bytes_written::total         2222144                       # Number of bytes written to this memory
system.mem_ctrls.num_reads::.cpu.inst              65                       # Number of read requests responded to by this memory
system.mem_ctrls.num_reads::.cpu.data           67384                       # Number of read requests responded to by this memory
system.mem_ctrls.num_reads::total               67449                       # Number of read requests responded to by this memory
system.mem_ctrls.num_writes::.writebacks        34721                       # Number of write requests responded to by this memory
system.mem_ctrls.num_writes::total              34721                       # Number of write requests responded to by this memory
system.mem_ctrls.bw_read::.cpu.inst            191377                       # Total read bandwidth from this memory (bytes/s)
system.mem_ctrls.bw_read::.cpu.data         198396141                       # Total read bandwidth from this memory (bytes/s)
system.mem_ctrls.bw_read::total             198587518                       # Total read bandwidth from this memory (bytes/s)
system.mem_ctrls.bw_inst_read::.cpu.inst       191377                       # Instruction read bandwidth from this memory (bytes/s)
system.mem_ctrls.bw_inst_read::total           191377                       # Instruction read bandwidth from this memory (bytes/s)
system.mem_ctrls.bw_write::.writebacks      102227716                       # Write bandwidth from this memory (bytes/s)
system.mem_ctrls.bw_write::total            102227716                       # Write bandwidth from this memory (bytes/s)
system.mem_ctrls.bw_total::.writebacks      102227716                       # Total bandwidth to/from this memory (bytes/s)
system.mem_ctrls.bw_total::.cpu.inst           191377                       # Total bandwidth to/from this memory (bytes/s)
system.mem_ctrls.bw_total::.cpu.data        198396141                       # Total bandwidth to/from this memory (bytes/s)
system.mem_ctrls.bw_total::total            300815234                       # Total bandwidth to/from this memory (bytes/s)
system.mem_ctrls.avgPriority_.writebacks::samples     34721.00                       # Average QoS priority value for accepted requests
system.mem_ctrls.avgPriority_.cpu.inst::samples        65.00                       # Average QoS priority value for accepted requests
system.mem_ctrls.avgPriority_.cpu.data::samples     67384.00                       # Average QoS priority value for accepted requests
system.mem_ctrls.priorityMinLatency      0.000000018750                       # per QoS priority minimum request to response latency (s)
system.mem_ctrls.priorityMaxLatency      0.001986102500                       # per QoS priority maximum request to response latency (s)
system.mem_ctrls.numReadWriteTurnArounds         2038                       # Number of turnarounds from READ to WRITE
system.mem_ctrls.numWriteReadTurnArounds         2038                       # Number of turnarounds from WRITE to READ
system.mem_ctrls.numStayReadState              171116                       # Number of times bus staying in READ state
system.mem_ctrls.numStayWriteState              32717                       # Number of times bus staying in WRITE state
system.mem_ctrls.readReqs                       67449                       # Number of read requests accepted
system.mem_ctrls.writeReqs                      34721                       # Number of write requests accepted
system.mem_ctrls.readBursts                     67449                       # Number of DRAM read bursts, including those serviced by the write queue
system.mem_ctrls.writeBursts                    34721                       # Number of DRAM write bursts, including those merged in the write queue
system.mem_ctrls.bytesReadDRAM                4316736                       # Total number of bytes read from DRAM
system.mem_ctrls.bytesReadWrQ                       0                       # Total number of bytes read from write queue
system.mem_ctrls.bytesWritten                 2220224                       # Total number of bytes written to DRAM
system.mem_ctrls.bytesReadSys                 4316736                       # Total read bytes from the system interface side
system.mem_ctrls.bytesWrittenSys              2222144                       # Total written bytes from the system interface side
system.mem_ctrls.servicedByWrQ                      0                       # Number of DRAM read bursts serviced by the write queue
system.mem_ctrls.mergedWrBursts                     0                       # Number of DRAM write bursts merged with an existing one
system.mem_ctrls.neitherReadNorWriteReqs            0                       # Number of requests that are neither read nor write
system.mem_ctrls.perBankRdBursts::0              4259                       # Per bank write bursts
system.mem_ctrls.perBankRdBursts::1              4240                       # Per bank write bursts
system.mem_ctrls.perBankRdBursts::2              4189                       # Per bank write bursts
system.mem_ctrls.perBankRdBursts::3              4241                       # Per bank write bursts
system.mem_ctrls.perBankRdBursts::4              4225                       # Per bank write bursts
system.mem_ctrls.perBankRdBursts::5              4224                       # Per bank write bursts
system.mem_ctrls.perBankRdBursts::6              4225                       # Per bank write bursts
system.mem_ctrls.perBankRdBursts::7              4224                       # Per bank write bursts
system.mem_ctrls.perBankRdBursts::8              4224                       # Per bank write bursts
system.mem_ctrls.perBankRdBursts::9              4228                       # Per bank write bursts
system.mem_ctrls.perBankRdBursts::10             4224                       # Per bank write bursts
system.mem_ctrls.perBankRdBursts::11             4224                       # Per bank write bursts
system.mem_ctrls.perBankRdBursts::12             4232                       # Per bank write bursts
system.mem_ctrls.perBankRdBursts::13             4105                       # Per bank write bursts
system.mem_ctrls.perBankRdBursts::14             4161                       # Per bank write bursts
system.mem_ctrls.perBankRdBursts::15             4224                       # Per bank write bursts
system.mem_ctrls.perBankWrBursts::0              2183                       # Per bank write bursts
system.mem_ctrls.perBankWrBursts::1              2198                       # Per bank write bursts
system.mem_ctrls.perBankWrBursts::2              2130                       # Per bank write bursts
system.mem_ctrls.perBankWrBursts::3              2178                       # Per bank write bursts
system.mem_ctrls.perBankWrBursts::4              2177                       # Per bank write bursts
system.mem_ctrls.perBankWrBursts::5              2176                       # Per bank write bursts
system.mem_ctrls.perBankWrBursts::6              2176                       # Per bank write bursts
system.mem_ctrls.perBankWrBursts::7              2177                       # Per bank write bursts
system.mem_ctrls.perBankWrBursts::8              2177                       # Per bank write bursts
system.mem_ctrls.perBankWrBursts::9              2179                       # Per bank write bursts
system.mem_ctrls.perBankWrBursts::10             2182                       # Per bank write bursts
system.mem_ctrls.perBankWrBursts::11             2177                       # Per bank write bursts
system.mem_ctrls.perBankWrBursts::12             2171                       # Per bank write bursts
system.mem_ctrls.perBankWrBursts::13             2059                       # Per bank write bursts
system.mem_ctrls.perBankWrBursts::14             2157                       # Per bank write bursts
system.mem_ctrls.perBankWrBursts::15             2194                       # Per bank write bursts
system.mem_ctrls.numRdRetry                         0                       # Number of times read queue was full causing retry
system.mem_ctrls.numWrRetry                         0                       # Number of times write queue was full causing retry
system.mem_ctrls.totGap                   21737269000                       # Total gap between requests
system.mem_ctrls.readPktSize::0                     0                       # Read request sizes (log2)
system.mem_ctrls.readPktSize::1                     0                       # Read request sizes (log2)
system.mem_ctrls.readPktSize::2                     0                       # Read request sizes (log2)
system.mem_ctrls.readPktSize::3                     0                       # Read request sizes (log2)
system.mem_ctrls.readPktSize::4                     0                       # Read request sizes (log2)
system.mem_ctrls.readPktSize::5                     0                       # Read request sizes (log2)
system.mem_ctrls.readPktSize::6                 67449                       # Read request sizes (log2)
system.mem_ctrls.writePktSize::0                    0                       # Write request sizes (log2)
system.mem_ctrls.writePktSize::1                    0                       # Write request sizes (log2)
system.mem_ctrls.writePktSize::2                    0                       # Write request sizes (log2)
system.mem_ctrls.writePktSize::3                    0                       # Write request sizes (log2)
system.mem_ctrls.writePktSize::4                    0                       # Write request sizes (log2)
system.mem_ctrls.writePktSize::5                    0                       # Write request sizes (log2)
system.mem_ctrls.writePktSize::6                34721                       # Write request sizes (log2)
system.mem_ctrls.rdQLenPdf::0                   52001                       # What read queue length does an incoming req see
system.mem_ctrls.rdQLenPdf::1                   15441                       # What read queue length does an incoming req see
system.mem_ctrls.rdQLenPdf::2                       5                       # What read queue length does an incoming req see
system.mem_ctrls.rdQLenPdf::3                       2                       # What read queue length does an incoming req see
system.mem_ctrls.rdQLenPdf::4                       0                       # What read queue length does an incoming req see
system.mem_ctrls.rdQLenPdf::5                       0                       # What read queue length does an incoming req see
system.mem_ctrls.rdQLenPdf::6                       0                       # What read queue length does an incoming req see
system.mem_ctrls.rdQLenPdf::7                       0                       # What read queue length does an incoming req see
system.mem_ctrls.rdQLenPdf::8                       0                       # What read queue length does an incoming req see
system.mem_ctrls.rdQLenPdf::9                       0                       # What read queue length does an incoming req see
system.mem_ctrls.rdQLenPdf::10                      0                       # What read queue length does an incoming req see
system.mem_ctrls.rdQLenPdf::11                      0                       # What read queue length does an incoming req see
system.mem_ctrls.rdQLenPdf::12                      0                       # What read queue length does an incoming req see
system.mem_ctrls.rdQLenPdf::13                      0                       # What read queue length does an incoming req see
system.mem_ctrls.rdQLenPdf::14                      0                       # What read queue length does an incoming req see
system.mem_ctrls.rdQLenPdf::15                      0                       # What read queue length does an incoming req see
system.mem_ctrls.rdQLenPdf::16                      0                       # What read queue length does an incoming req see
system.mem_ctrls.rdQLenPdf::17                      0                       # What read queue length does an incoming req see
system.mem_ctrls.rdQLenPdf::18                      0                       # What read queue length does an incoming req see
system.mem_ctrls.rdQLenPdf::19                      0                       # What read queue length does an incoming req see
system.mem_ctrls.rdQLenPdf::20                      0                       # What read queue length does an incoming req see
system.mem_ctrls.rdQLenPdf::21                      0                       # What read queue length does an incoming req see
system.mem_ctrls.rdQLenPdf::22                      0                       # What read queue length does an incoming req see
system.mem_ctrls.rdQLenPdf::23                      0                       # What read queue length does an incoming req see
system.mem_ctrls.rdQLenPdf::24                      0                       # What read queue length does an incoming req see
system.mem_ctrls.rdQLenPdf::25                      0                       # What read queue length does an incoming req see
system.mem_ctrls.rdQLenPdf::26                      0                       # What read queue length does an incoming req see
system.mem_ctrls.rdQLenPdf::27                      0                       # What read queue length does an incoming req see
system.mem_ctrls.rdQLenPdf::28                      0                       # What read queue length does an incoming req see
system.mem_ctrls.rdQLenPdf::29                      0                       # What read queue length does an incoming req see
system.mem_ctrls.rdQLenPdf::30                      0                       # What read queue length does an incoming req see
system.mem_ctrls.rdQLenPdf::31                      0                       # What read queue length does an incoming req see
system.mem_ctrls.wrQLenPdf::0                       1                       # What write queue length does an incoming req see
system.mem_ctrls.wrQLenPdf::1                       1                       # What write queue length does an incoming req see
system.mem_ctrls.wrQLenPdf::2                       1                       # What write queue length does an incoming req see
system.mem_ctrls.wrQLenPdf::3                       1                       # What write queue length does an incoming req see
system.mem_ctrls.wrQLenPdf::4                       1                       # What write queue length does an incoming req see
system.mem_ctrls.wrQLenPdf::5                       1                       # What write queue length does an incoming req see
system.mem_ctrls.wrQLenPdf::6                       1                       # What write queue length does an incoming req see
system.mem_ctrls.wrQLenPdf::7                       1                       # What write queue length does an incoming req see
system.mem_ctrls.wrQLenPdf::8                       1                       # What write queue length does an incoming req see
system.mem_ctrls.wrQLenPdf::9                       1                       # What write queue length does an incoming req see
system.mem_ctrls.wrQLenPdf::10                      1                       # What write queue length does an incoming req see
system.mem_ctrls.wrQLenPdf::11                      1                       # What write queue length does an incoming req see
system.mem_ctrls.wrQLenPdf::12                      1                       # What write queue length does an incoming req see
system.mem_ctrls.wrQLenPdf::13                      1                       # What write queue length does an incoming req see
system.mem_ctrls.wrQLenPdf::14                      1                       # What write queue length does an incoming req see
system.mem_ctrls.wrQLenPdf::15                   1013                       # What write queue length does an incoming req see
system.mem_ctrls.wrQLenPdf::16                   1031                       # What write queue length does an incoming req see
system.mem_ctrls.wrQLenPdf::17                   1623                       # What write queue length does an incoming req see
system.mem_ctrls.wrQLenPdf::18                   2039                       # What write queue length does an incoming req see
system.mem_ctrls.wrQLenPdf::19                   2039                       # What write queue length does an incoming req see
system.mem_ctrls.wrQLenPdf::20                   2039                       # What write queue length does an incoming req see
system.mem_ctrls.wrQLenPdf::21                   2045                       # What write queue length does an incoming req see
system.mem_ctrls.wrQLenPdf::22                   2039                       # What write queue length does an incoming req see
system.mem_ctrls.wrQLenPdf::23                   2039                       # What write queue length does an incoming req see
system.mem_ctrls.wrQLenPdf::24                   2039                       # What write queue length does an incoming req see
system.mem_ctrls.wrQLenPdf::25                   2039                       # What write queue length does an incoming req see
system.mem_ctrls.wrQLenPdf::26                   2039                       # What write queue length does an incoming req see
system.mem_ctrls.wrQLenPdf::27                   2050                       # What write queue length does an incoming req see
system.mem_ctrls.wrQLenPdf::28                   2052                       # What write queue length does an incoming req see
system.mem_ctrls.wrQLenPdf::29                   2060                       # What write queue length does an incoming req see
system.mem_ctrls.wrQLenPdf::30                   2155                       # What write queue length does an incoming req see
system.mem_ctrls.wrQLenPdf::31                   2049                       # What write queue length does an incoming req see
system.mem_ctrls.wrQLenPdf::32                   2314                       # What write queue length does an incoming req see
system.mem_ctrls.wrQLenPdf::33                      2                       # What write queue length does an incoming req see
system.mem_ctrls.wrQLenPdf::34                      0                       # What write queue length does an incoming req see
system.mem_ctrls.wrQLenPdf::35                      0                       # What write queue length does an incoming req see
system.mem_ctrls.wrQLenPdf::36                      0                       # What write queue length does an incoming req see
system.mem_ctrls.wrQLenPdf::37                      0                       # What write queue length does an incoming req see
system.mem_ctrls.wrQLenPdf::38                      0                       # What write queue length does an incoming req see
system.mem_ctrls.wrQLenPdf::39                      0                       # What write queue length does an incoming req see
system.mem_ctrls.wrQLenPdf::40                      0                       # What write queue length does an incoming req see
system.mem_ctrls.wrQLenPdf::41                      0                       # What write queue length does an incoming req see
system.mem_ctrls.wrQLenPdf::42                      0                       # What write queue length does an incoming req see
system.mem_ctrls.wrQLenPdf::43                      0                       # What write queue length does an incoming req see
system.mem_ctrls.wrQLenPdf::44                      0                       # What write queue length does an incoming req see
system.mem_ctrls.wrQLenPdf::45                      0                       # What write queue length does an incoming req see
system.mem_ctrls.wrQLenPdf::46                      0                       # What write queue length does an incoming req see
system.mem_ctrls.wrQLenPdf::47                      0                       # What write queue length does an incoming req see
system.mem_ctrls.wrQLenPdf::48                      0                       # What write queue length does an incoming req see
system.mem_ctrls.wrQLenPdf::49                      0                       # What write queue length does an incoming req see
system.mem_ctrls.wrQLenPdf::50                      0                       # What write queue length does an incoming req see
system.mem_ctrls.wrQLenPdf::51                      0                       # What write queue length does an incoming req see
system.mem_ctrls.wrQLenPdf::52                      0                       # What write queue length does an incoming req see
system.mem_ctrls.wrQLenPdf::53                      0                       # What write queue length does an incoming req see
system.mem_ctrls.wrQLenPdf::54                      0                       # What write queue length does an incoming req see
system.mem_ctrls.wrQLenPdf::55                      0                       # What write queue length does an incoming req see
system.mem_ctrls.wrQLenPdf::56                      0                       # What write queue length does an incoming req see
system.mem_ctrls.wrQLenPdf::57                      0                       # What write queue length does an incoming req see
system.mem_ctrls.wrQLenPdf::58                      0                       # What write queue length does an incoming req see
system.mem_ctrls.wrQLenPdf::59                      0                       # What write queue length does an incoming req see
system.mem_ctrls.wrQLenPdf::60                      0                       # What write queue length does an incoming req see
system.mem_ctrls.wrQLenPdf::61                      0                       # What write queue length does an incoming req see
system.mem_ctrls.wrQLenPdf::62                      0                       # What write queue length does an incoming req see
system.mem_ctrls.wrQLenPdf::63                      0                       # What write queue length does an incoming req see
system.mem_ctrls.bytesPerActivate::samples        12010                       # Bytes accessed per row activation
system.mem_ctrls.bytesPerActivate::mean    544.474271                       # Bytes accessed per row activation
system.mem_ctrls.bytesPerActivate::gmean   393.045200                       # Bytes accessed per row activation
system.mem_ctrls.bytesPerActivate::stdev   356.952255                       # Bytes accessed per row activation
system.mem_ctrls.bytesPerActivate::0-127          889      7.40%      7.40% # Bytes accessed per row activation
system.mem_ctrls.bytesPerActivate::128-255         2865     23.86%     31.26% # Bytes accessed per row activation
system.mem_ctrls.bytesPerActivate::256-383          976      8.13%     39.38% # Bytes accessed per row activation
system.mem_ctrls.bytesPerActivate::384-511          846      7.04%     46.43% # Bytes accessed per row activation
system.mem_ctrls.bytesPerActivate::512-639          786      6.54%     52.97% # Bytes accessed per row activation
system.mem_ctrls.bytesPerActivate::640-767         1483     12.35%     65.32% # Bytes accessed per row activation
system.mem_ctrls.bytesPerActivate::768-895          970      8.08%     73.40% # Bytes accessed per row activation
system.mem_ctrls.bytesPerActivate::896-1023          500      4.16%     77.56% # Bytes accessed per row activation
system.mem_ctrls.bytesPerActivate::1024-1151         2695     22.44%    100.00% # Bytes accessed per row activation
system.mem_ctrls.bytesPerActivate::total        12010                       # Bytes accessed per row activation
system.mem_ctrls.rdPerTurnAround::samples         2038                       # Reads before turning the bus around for writes
system.mem_ctrls.rdPerTurnAround::mean      33.451914                       # Reads before turning the bus around for writes
system.mem_ctrls.rdPerTurnAround::gmean     17.305583                       # Reads before turning the bus around for writes
system.mem_ctrls.rdPerTurnAround::stdev    660.217858                       # Reads before turning the bus around for writes
system.mem_ctrls.rdPerTurnAround::0-1023         2036     99.90%     99.90% # Reads before turning the bus around for writes
system.mem_ctrls.rdPerTurnAround::2048-3071            1      0.05%     99.95% # Reads before turning the bus around for writes
system.mem_ctrls.rdPerTurnAround::29696-30719            1      0.05%    100.00% # Reads before turning the bus around for writes
system.mem_ctrls.rdPerTurnAround::total          2038                       # Reads before turning the bus around for writes
system.mem_ctrls.wrPerTurnAround::samples         2038                       # Writes before turning the bus around for reads
system.mem_ctrls.wrPerTurnAround::mean      17.022080                       # Writes before turning the bus around for reads
system.mem_ctrls.wrPerTurnAround::gmean     16.992153                       # Writes before turning the bus around for reads
system.mem_ctrls.wrPerTurnAround::stdev      1.009529                       # Writes before turning the bus around for reads
system.mem_ctrls.wrPerTurnAround::16              994     48.77%     48.77% # Writes before turning the bus around for reads
system.mem_ctrls.wrPerTurnAround::17               26      1.28%     50.05% # Writes before turning the bus around for reads
system.mem_ctrls.wrPerTurnAround::18              998     48.97%     99.02% # Writes before turning the bus around for reads
system.mem_ctrls.wrPerTurnAround::19               19      0.93%     99.95% # Writes before turning the bus around for reads
system.mem_ctrls.wrPerTurnAround::20                1      0.05%    100.00% # Writes before turning the bus around for reads
system.mem_ctrls.wrPerTurnAround::total          2038                       # Writes before turning the bus around for reads
system.mem_ctrls.masterReadBytes::.cpu.inst         4160                       # Per-master bytes read from memory
system.mem_ctrls.masterReadBytes::.cpu.data      4312576                       # Per-master bytes read from memory
system.mem_ctrls.masterWriteBytes::.writebacks      2220224                       # Per-master bytes write to memory
system.mem_ctrls.masterReadRate::.cpu.inst 191377.020689466095                       # Per-master bytes read from memory rate (Bytes/sec)
system.mem_ctrls.masterReadRate::.cpu.data 198396140.955984354019                       # Per-master bytes read from memory rate (Bytes/sec)
system.mem_ctrls.masterWriteRate::.writebacks 102139388.072896420956                       # Per-master bytes write to memory rate (Bytes/sec)
system.mem_ctrls.masterReadAccesses::.cpu.inst           65                       # Per-master read serviced memory accesses
system.mem_ctrls.masterReadAccesses::.cpu.data        67384                       # Per-master read serviced memory accesses
system.mem_ctrls.masterWriteAccesses::.writebacks        34721                       # Per-master write serviced memory accesses
system.mem_ctrls.masterReadTotalLat::.cpu.inst      1791250                       # Per-master read total memory access latency
system.mem_ctrls.masterReadTotalLat::.cpu.data   2468133250                       # Per-master read total memory access latency
system.mem_ctrls.masterWriteTotalLat::.writebacks 297991206500                       # Per-master write total memory access latency
system.mem_ctrls.masterReadAvgLat::.cpu.inst     27557.69                       # Per-master read average memory access latency
system.mem_ctrls.masterReadAvgLat::.cpu.data     36627.88                       # Per-master read average memory access latency
system.mem_ctrls.masterWriteAvgLat::.writebacks   8582448.85                       # Per-master write average memory access latency
system.mem_ctrls.totQLat                   1205255750                       # Total ticks spent queuing
system.mem_ctrls.totMemAccLat              2469924500                       # Total ticks spent from burst creation until serviced by the DRAM
system.mem_ctrls.totBusLat                  337245000                       # Total ticks spent in databus transfers
system.mem_ctrls.avgQLat                     17869.14                       # Average queueing delay per DRAM burst
system.mem_ctrls.avgBusLat                    5000.00                       # Average bus latency per DRAM burst
system.mem_ctrls.avgMemAccLat                36619.14                       # Average memory access latency per DRAM burst
system.mem_ctrls.avgRdBW                       198.59                       # Average DRAM read bandwidth in MiByte/s
system.mem_ctrls.avgWrBW                       102.14                       # Average achieved write bandwidth in MiByte/s
system.mem_ctrls.avgRdBWSys                    198.59                       # Average system read bandwidth in MiByte/s
system.mem_ctrls.avgWrBWSys                    102.23                       # Average system write bandwidth in MiByte/s
system.mem_ctrls.peakBW                      12800.00                       # Theoretical peak bandwidth in MiByte/s
system.mem_ctrls.busUtil                         2.35                       # Data bus utilization in percentage
system.mem_ctrls.busUtilRead                     1.55                       # Data bus utilization in percentage for reads
system.mem_ctrls.busUtilWrite                    0.80                       # Data bus utilization in percentage for writes
system.mem_ctrls.avgRdQLen                       1.07                       # Average read queue length when enqueuing
system.mem_ctrls.avgWrQLen                      14.29                       # Average write queue length when enqueuing
system.mem_ctrls.readRowHits                    58944                       # Number of row buffer hits during reads
system.mem_ctrls.writeRowHits                   31195                       # Number of row buffer hits during writes
system.mem_ctrls.readRowHitRate                 87.39                       # Row buffer hit rate for reads
system.mem_ctrls.writeRowHitRate                89.84                       # Row buffer hit rate for writes
system.mem_ctrls.avgGap                     212755.89                       # Average gap between requests
system.mem_ctrls.pageHitRate                    88.22                       # Row buffer hit rate, read and write combined
system.mem_ctrls_0.actEnergy                 42832860                       # Energy for activate commands per rank (pJ)
system.mem_ctrls_0.preEnergy                 22758615                       # Energy for precharge commands per rank (pJ)
system.mem_ctrls_0.readEnergy               241996020                       # Energy for read commands per rank (pJ)
system.mem_ctrls_0.writeEnergy               90801900                       # Energy for write commands per rank (pJ)
system.mem_ctrls_0.refreshEnergy         1231123920.000000                       # Energy for refresh commands per rank (pJ)
system.mem_ctrls_0.actBackEnergy            894038730                       # Energy for active background per rank (pJ)
system.mem_ctrls_0.preBackEnergy             50663520                       # Energy for precharge background per rank (pJ)
system.mem_ctrls_0.actPowerDownEnergy      5036306250                       # Energy for active power-down per rank (pJ)
system.mem_ctrls_0.prePowerDownEnergy       958559040                       # Energy for precharge power-down per rank (pJ)
system.mem_ctrls_0.selfRefreshEnergy       1543232400                       # Energy for self refresh per rank (pJ)
system.mem_ctrls_0.totalEnergy            10113345765                       # Total energy per rank (pJ)
system.mem_ctrls_0.averagePower            465.255284                       # Core power per rank (mW)
system.mem_ctrls_0.totalIdleTime          19643978000                       # Total Idle time Per DRAM Rank
system.mem_ctrls_0.memoryStateTime::IDLE     57076500                       # Time in different power states
system.mem_ctrls_0.memoryStateTime::REF     520780000                       # Time in different power states
system.mem_ctrls_0.memoryStateTime::SREF   6105700000                       # Time in different power states
system.mem_ctrls_0.memoryStateTime::PRE_PDN   2496181000                       # Time in different power states
system.mem_ctrls_0.memoryStateTime::ACT    1515357250                       # Time in different power states
system.mem_ctrls_0.memoryStateTime::ACT_PDN  11042159000                       # Time in different power states
system.mem_ctrls_1.actEnergy                 42975660                       # Energy for activate commands per rank (pJ)
system.mem_ctrls_1.preEnergy                 22842105                       # Energy for precharge commands per rank (pJ)
system.mem_ctrls_1.readEnergy               240211020                       # Energy for read commands per rank (pJ)
system.mem_ctrls_1.writeEnergy               90285120                       # Energy for write commands per rank (pJ)
system.mem_ctrls_1.refreshEnergy         1226206800.000000                       # Energy for refresh commands per rank (pJ)
system.mem_ctrls_1.actBackEnergy            904009170                       # Energy for active background per rank (pJ)
system.mem_ctrls_1.preBackEnergy             57348960                       # Energy for precharge background per rank (pJ)
system.mem_ctrls_1.actPowerDownEnergy      5005167150                       # Energy for active power-down per rank (pJ)
system.mem_ctrls_1.prePowerDownEnergy       946503360                       # Energy for precharge power-down per rank (pJ)
system.mem_ctrls_1.selfRefreshEnergy       1561043640                       # Energy for self refresh per rank (pJ)
system.mem_ctrls_1.totalEnergy            10097249685                       # Total energy per rank (pJ)
system.mem_ctrls_1.averagePower            464.514799                       # Core power per rank (mW)
system.mem_ctrls_1.totalIdleTime          19604079250                       # Total Idle time Per DRAM Rank
system.mem_ctrls_1.memoryStateTime::IDLE     74880500                       # Time in different power states
system.mem_ctrls_1.memoryStateTime::REF     518700000                       # Time in different power states
system.mem_ctrls_1.memoryStateTime::SREF   6166943250                       # Time in different power states
system.mem_ctrls_1.memoryStateTime::PRE_PDN   2464868250                       # Time in different power states
system.mem_ctrls_1.memoryStateTime::ACT    1539295250                       # Time in different power states
system.mem_ctrls_1.memoryStateTime::ACT_PDN  10972786500                       # Time in different power states
system.pwrStateResidencyTicks::UNDEFINED  21772745500                       # Cumulative time (in ticks) in various power states
system.cpu.branchPred.lookups                21127873                       # Number of BP lookups
system.cpu.branchPred.condPredicted          17048785                       # Number of conditional branches predicted
system.cpu.branchPred.condIncorrect            313046                       # Number of conditional branches incorrect
system.cpu.branchPred.BTBLookups             13167552                       # Number of BTB lookups
system.cpu.branchPred.BTBHits                12978288                       # Number of BTB hits
system.cpu.branchPred.BTBCorrect                    0                       # Number of correct BTB predictions (this stat may not work properly.
system.cpu.branchPred.BTBHitPct             98.562649                       # BTB Hit Percentage
system.cpu.branchPred.usedRAS                  416530                       # Number of times the RAS was used to get a target.
system.cpu.branchPred.RASInCorrect              13631                       # Number of incorrect RAS predictions.
system.cpu.branchPred.indirectLookups           58414                       # Number of indirect predictor lookups.
system.cpu.branchPred.indirectHits              52946                       # Number of indirect target hits.
system.cpu.branchPred.indirectMisses             5468                       # Number of indirect misses.
system.cpu.branchPredindirectMispredicted         1990                       # Number of mispredicted indirect branches.
system.cpu_voltage_domain.voltage                   1                       # Voltage in Volts
system.cpu_clk_domain.clock                       500                       # Clock period in ticks
system.cpu.dstage2_mmu.stage2_tlb.walker.pwrStateResidencyTicks::UNDEFINED  21772745500                       # Cumulative time (in ticks) in various power states
system.cpu.dstage2_mmu.stage2_tlb.walker.walks            0                       # Table walker walks requested
system.cpu.dstage2_mmu.stage2_tlb.walker.walkRequestOrigin_Requested::Data            0                       # Table walker requests started/completed, data/inst
system.cpu.dstage2_mmu.stage2_tlb.walker.walkRequestOrigin_Requested::Inst            0                       # Table walker requests started/completed, data/inst
system.cpu.dstage2_mmu.stage2_tlb.walker.walkRequestOrigin_Requested::total            0                       # Table walker requests started/completed, data/inst
system.cpu.dstage2_mmu.stage2_tlb.walker.walkRequestOrigin_Completed::Data            0                       # Table walker requests started/completed, data/inst
system.cpu.dstage2_mmu.stage2_tlb.walker.walkRequestOrigin_Completed::Inst            0                       # Table walker requests started/completed, data/inst
system.cpu.dstage2_mmu.stage2_tlb.walker.walkRequestOrigin_Completed::total            0                       # Table walker requests started/completed, data/inst
system.cpu.dstage2_mmu.stage2_tlb.walker.walkRequestOrigin::total            0                       # Table walker requests started/completed, data/inst
system.cpu.dstage2_mmu.stage2_tlb.inst_hits            0                       # ITB inst hits
system.cpu.dstage2_mmu.stage2_tlb.inst_misses            0                       # ITB inst misses
system.cpu.dstage2_mmu.stage2_tlb.read_hits            0                       # DTB read hits
system.cpu.dstage2_mmu.stage2_tlb.read_misses            0                       # DTB read misses
system.cpu.dstage2_mmu.stage2_tlb.write_hits            0                       # DTB write hits
system.cpu.dstage2_mmu.stage2_tlb.write_misses            0                       # DTB write misses
system.cpu.dstage2_mmu.stage2_tlb.flush_tlb            0                       # Number of times complete TLB was flushed
system.cpu.dstage2_mmu.stage2_tlb.flush_tlb_mva            0                       # Number of times TLB was flushed by MVA
system.cpu.dstage2_mmu.stage2_tlb.flush_tlb_mva_asid            0                       # Number of times TLB was flushed by MVA & ASID
system.cpu.dstage2_mmu.stage2_tlb.flush_tlb_asid            0                       # Number of times TLB was flushed by ASID
system.cpu.dstage2_mmu.stage2_tlb.flush_entries            0                       # Number of entries that have been flushed from TLB
system.cpu.dstage2_mmu.stage2_tlb.align_faults            0                       # Number of TLB faults due to alignment restrictions
system.cpu.dstage2_mmu.stage2_tlb.prefetch_faults            0                       # Number of TLB faults due to prefetch
system.cpu.dstage2_mmu.stage2_tlb.domain_faults            0                       # Number of TLB faults due to domain restrictions
system.cpu.dstage2_mmu.stage2_tlb.perms_faults            0                       # Number of TLB faults due to permissions restrictions
system.cpu.dstage2_mmu.stage2_tlb.read_accesses            0                       # DTB read accesses
system.cpu.dstage2_mmu.stage2_tlb.write_accesses            0                       # DTB write accesses
system.cpu.dstage2_mmu.stage2_tlb.inst_accesses            0                       # ITB inst accesses
system.cpu.dstage2_mmu.stage2_tlb.hits              0                       # DTB hits
system.cpu.dstage2_mmu.stage2_tlb.misses            0                       # DTB misses
system.cpu.dstage2_mmu.stage2_tlb.accesses            0                       # DTB accesses
system.cpu.dtb.walker.pwrStateResidencyTicks::UNDEFINED  21772745500                       # Cumulative time (in ticks) in various power states
system.cpu.dtb.walker.walks                         0                       # Table walker walks requested
system.cpu.dtb.walker.walkRequestOrigin_Requested::Data            0                       # Table walker requests started/completed, data/inst
system.cpu.dtb.walker.walkRequestOrigin_Requested::Inst            0                       # Table walker requests started/completed, data/inst
system.cpu.dtb.walker.walkRequestOrigin_Requested::total            0                       # Table walker requests started/completed, data/inst
system.cpu.dtb.walker.walkRequestOrigin_Completed::Data            0                       # Table walker requests started/completed, data/inst
system.cpu.dtb.walker.walkRequestOrigin_Completed::Inst            0                       # Table walker requests started/completed, data/inst
system.cpu.dtb.walker.walkRequestOrigin_Completed::total            0                       # Table walker requests started/completed, data/inst
system.cpu.dtb.walker.walkRequestOrigin::total            0                       # Table walker requests started/completed, data/inst
system.cpu.dtb.inst_hits                            0                       # ITB inst hits
system.cpu.dtb.inst_misses                          0                       # ITB inst misses
system.cpu.dtb.read_hits                            0                       # DTB read hits
system.cpu.dtb.read_misses                          0                       # DTB read misses
system.cpu.dtb.write_hits                           0                       # DTB write hits
system.cpu.dtb.write_misses                         0                       # DTB write misses
system.cpu.dtb.flush_tlb                            0                       # Number of times complete TLB was flushed
system.cpu.dtb.flush_tlb_mva                        0                       # Number of times TLB was flushed by MVA
system.cpu.dtb.flush_tlb_mva_asid                   0                       # Number of times TLB was flushed by MVA & ASID
system.cpu.dtb.flush_tlb_asid                       0                       # Number of times TLB was flushed by ASID
system.cpu.dtb.flush_entries                        0                       # Number of entries that have been flushed from TLB
system.cpu.dtb.align_faults                         0                       # Number of TLB faults due to alignment restrictions
system.cpu.dtb.prefetch_faults                      0                       # Number of TLB faults due to prefetch
system.cpu.dtb.domain_faults                        0                       # Number of TLB faults due to domain restrictions
system.cpu.dtb.perms_faults                         0                       # Number of TLB faults due to permissions restrictions
system.cpu.dtb.read_accesses                        0                       # DTB read accesses
system.cpu.dtb.write_accesses                       0                       # DTB write accesses
system.cpu.dtb.inst_accesses                        0                       # ITB inst accesses
system.cpu.dtb.hits                                 0                       # DTB hits
system.cpu.dtb.misses                               0                       # DTB misses
system.cpu.dtb.accesses                             0                       # DTB accesses
system.cpu.istage2_mmu.stage2_tlb.walker.pwrStateResidencyTicks::UNDEFINED  21772745500                       # Cumulative time (in ticks) in various power states
system.cpu.istage2_mmu.stage2_tlb.walker.walks            0                       # Table walker walks requested
system.cpu.istage2_mmu.stage2_tlb.walker.walkRequestOrigin_Requested::Data            0                       # Table walker requests started/completed, data/inst
system.cpu.istage2_mmu.stage2_tlb.walker.walkRequestOrigin_Requested::Inst            0                       # Table walker requests started/completed, data/inst
system.cpu.istage2_mmu.stage2_tlb.walker.walkRequestOrigin_Requested::total            0                       # Table walker requests started/completed, data/inst
system.cpu.istage2_mmu.stage2_tlb.walker.walkRequestOrigin_Completed::Data            0                       # Table walker requests started/completed, data/inst
system.cpu.istage2_mmu.stage2_tlb.walker.walkRequestOrigin_Completed::Inst            0                       # Table walker requests started/completed, data/inst
system.cpu.istage2_mmu.stage2_tlb.walker.walkRequestOrigin_Completed::total            0                       # Table walker requests started/completed, data/inst
system.cpu.istage2_mmu.stage2_tlb.walker.walkRequestOrigin::total            0                       # Table walker requests started/completed, data/inst
system.cpu.istage2_mmu.stage2_tlb.inst_hits            0                       # ITB inst hits
system.cpu.istage2_mmu.stage2_tlb.inst_misses            0                       # ITB inst misses
system.cpu.istage2_mmu.stage2_tlb.read_hits            0                       # DTB read hits
system.cpu.istage2_mmu.stage2_tlb.read_misses            0                       # DTB read misses
system.cpu.istage2_mmu.stage2_tlb.write_hits            0                       # DTB write hits
system.cpu.istage2_mmu.stage2_tlb.write_misses            0                       # DTB write misses
system.cpu.istage2_mmu.stage2_tlb.flush_tlb            0                       # Number of times complete TLB was flushed
system.cpu.istage2_mmu.stage2_tlb.flush_tlb_mva            0                       # Number of times TLB was flushed by MVA
system.cpu.istage2_mmu.stage2_tlb.flush_tlb_mva_asid            0                       # Number of times TLB was flushed by MVA & ASID
system.cpu.istage2_mmu.stage2_tlb.flush_tlb_asid            0                       # Number of times TLB was flushed by ASID
system.cpu.istage2_mmu.stage2_tlb.flush_entries            0                       # Number of entries that have been flushed from TLB
system.cpu.istage2_mmu.stage2_tlb.align_faults            0                       # Number of TLB faults due to alignment restrictions
system.cpu.istage2_mmu.stage2_tlb.prefetch_faults            0                       # Number of TLB faults due to prefetch
system.cpu.istage2_mmu.stage2_tlb.domain_faults            0                       # Number of TLB faults due to domain restrictions
system.cpu.istage2_mmu.stage2_tlb.perms_faults            0                       # Number of TLB faults due to permissions restrictions
system.cpu.istage2_mmu.stage2_tlb.read_accesses            0                       # DTB read accesses
system.cpu.istage2_mmu.stage2_tlb.write_accesses            0                       # DTB write accesses
system.cpu.istage2_mmu.stage2_tlb.inst_accesses            0                       # ITB inst accesses
system.cpu.istage2_mmu.stage2_tlb.hits              0                       # DTB hits
system.cpu.istage2_mmu.stage2_tlb.misses            0                       # DTB misses
system.cpu.istage2_mmu.stage2_tlb.accesses            0                       # DTB accesses
system.cpu.itb.walker.pwrStateResidencyTicks::UNDEFINED  21772745500                       # Cumulative time (in ticks) in various power states
system.cpu.itb.walker.walks                         0                       # Table walker walks requested
system.cpu.itb.walker.walkRequestOrigin_Requested::Data            0                       # Table walker requests started/completed, data/inst
system.cpu.itb.walker.walkRequestOrigin_Requested::Inst            0                       # Table walker requests started/completed, data/inst
system.cpu.itb.walker.walkRequestOrigin_Requested::total            0                       # Table walker requests started/completed, data/inst
system.cpu.itb.walker.walkRequestOrigin_Completed::Data            0                       # Table walker requests started/completed, data/inst
system.cpu.itb.walker.walkRequestOrigin_Completed::Inst            0                       # Table walker requests started/completed, data/inst
system.cpu.itb.walker.walkRequestOrigin_Completed::total            0                       # Table walker requests started/completed, data/inst
system.cpu.itb.walker.walkRequestOrigin::total            0                       # Table walker requests started/completed, data/inst
system.cpu.itb.inst_hits                            0                       # ITB inst hits
system.cpu.itb.inst_misses                          0                       # ITB inst misses
system.cpu.itb.read_hits                            0                       # DTB read hits
system.cpu.itb.read_misses                          0                       # DTB read misses
system.cpu.itb.write_hits                           0                       # DTB write hits
system.cpu.itb.write_misses                         0                       # DTB write misses
system.cpu.itb.flush_tlb                            0                       # Number of times complete TLB was flushed
system.cpu.itb.flush_tlb_mva                        0                       # Number of times TLB was flushed by MVA
system.cpu.itb.flush_tlb_mva_asid                   0                       # Number of times TLB was flushed by MVA & ASID
system.cpu.itb.flush_tlb_asid                       0                       # Number of times TLB was flushed by ASID
system.cpu.itb.flush_entries                        0                       # Number of entries that have been flushed from TLB
system.cpu.itb.align_faults                         0                       # Number of TLB faults due to alignment restrictions
system.cpu.itb.prefetch_faults                      0                       # Number of TLB faults due to prefetch
system.cpu.itb.domain_faults                        0                       # Number of TLB faults due to domain restrictions
system.cpu.itb.perms_faults                         0                       # Number of TLB faults due to permissions restrictions
system.cpu.itb.read_accesses                        0                       # DTB read accesses
system.cpu.itb.write_accesses                       0                       # DTB write accesses
system.cpu.itb.inst_accesses                        0                       # ITB inst accesses
system.cpu.itb.hits                                 0                       # DTB hits
system.cpu.itb.misses                               0                       # DTB misses
system.cpu.itb.accesses                             0                       # DTB accesses
system.cpu.workload.numSyscalls                     6                       # Number of system calls
system.cpu.pwrStateResidencyTicks::ON     21772745500                       # Cumulative time (in ticks) in various power states
system.cpu.numCycles                         43474394                       # number of cpu cycles simulated
system.cpu.numWorkItemsStarted                      0                       # number of work items this cpu started
system.cpu.numWorkItemsCompleted                    0                       # number of work items this cpu completed
system.cpu.fetch.icacheStallCycles            9716110                       # Number of cycles fetch is stalled on an Icache miss
system.cpu.fetch.Insts                      100968890                       # Number of instructions fetch has processed
system.cpu.fetch.Branches                    21127873                       # Number of branches that fetch encountered
system.cpu.fetch.predictedBranches           13447764                       # Number of branches that fetch has predicted taken
system.cpu.fetch.Cycles                      33433965                       # Number of cycles fetch has run and was not squashing or blocked
system.cpu.fetch.SquashCycles                  630058                       # Number of cycles fetch has spent squashing
system.cpu.fetch.MiscStallCycles                  143                       # Number of cycles fetch has spent waiting on interrupts, or bad addresses, or out of MSHRs
system.cpu.fetch.PendingTrapStallCycles           589                       # Number of stall cycles due to pending traps
system.cpu.fetch.CacheLines                   9433235                       # Number of cache lines fetched
system.cpu.fetch.IcacheSquashes                 78871                       # Number of outstanding Icache misses that were squashed
system.cpu.fetch.rateDist::samples           43465836                       # Number of instructions fetched each cycle (Total)
system.cpu.fetch.rateDist::mean              2.557312                       # Number of instructions fetched each cycle (Total)
system.cpu.fetch.rateDist::stdev             3.103736                       # Number of instructions fetched each cycle (Total)
system.cpu.fetch.rateDist::underflows               0      0.00%      0.00% # Number of instructions fetched each cycle (Total)
system.cpu.fetch.rateDist::0                 20590289     47.37%     47.37% # Number of instructions fetched each cycle (Total)
system.cpu.fetch.rateDist::1                  2025900      4.66%     52.03% # Number of instructions fetched each cycle (Total)
system.cpu.fetch.rateDist::2                  6106460     14.05%     66.08% # Number of instructions fetched each cycle (Total)
system.cpu.fetch.rateDist::3                   475921      1.09%     67.18% # Number of instructions fetched each cycle (Total)
system.cpu.fetch.rateDist::4                  2603289      5.99%     73.17% # Number of instructions fetched each cycle (Total)
system.cpu.fetch.rateDist::5                   370163      0.85%     74.02% # Number of instructions fetched each cycle (Total)
system.cpu.fetch.rateDist::6                  2704334      6.22%     80.24% # Number of instructions fetched each cycle (Total)
system.cpu.fetch.rateDist::7                  1716712      3.95%     84.19% # Number of instructions fetched each cycle (Total)
system.cpu.fetch.rateDist::8                  6872768     15.81%    100.00% # Number of instructions fetched each cycle (Total)
system.cpu.fetch.rateDist::overflows                0      0.00%    100.00% # Number of instructions fetched each cycle (Total)
system.cpu.fetch.rateDist::min_value                0                       # Number of instructions fetched each cycle (Total)
system.cpu.fetch.rateDist::max_value                8                       # Number of instructions fetched each cycle (Total)
system.cpu.fetch.rateDist::total             43465836                       # Number of instructions fetched each cycle (Total)
system.cpu.fetch.branchRate                  0.485984                       # Number of branch fetches per cycle
system.cpu.fetch.rate                        2.322491                       # Number of inst fetches per cycle
system.cpu.decode.IdleCycles                  7593949                       # Number of cycles decode is idle
system.cpu.decode.BlockedCycles              15102724                       # Number of cycles decode is blocked
system.cpu.decode.RunCycles                  18678637                       # Number of cycles decode is running
system.cpu.decode.UnblockCycles               1777509                       # Number of cycles decode is unblocking
system.cpu.decode.SquashCycles                 313017                       # Number of cycles decode is squashing
system.cpu.decode.BranchResolved             12822464                       # Number of times decode resolved a branch
system.cpu.decode.BranchMispred                  2057                       # Number of times decode detected a branch misprediction
system.cpu.decode.DecodedInsts              109701812                       # Number of instructions handled by decode
system.cpu.decode.SquashedInsts                 15803                       # Number of squashed instructions handled by decode
system.cpu.rename.SquashCycles                 313017                       # Number of cycles rename is squashing
system.cpu.rename.IdleCycles                  8399054                       # Number of cycles rename is idle
system.cpu.rename.BlockCycles                 6718456                       # Number of cycles rename is blocking
system.cpu.rename.serializeStallCycles         263037                       # count of cycles rename stalled for serializing inst
system.cpu.rename.RunCycles                  19500192                       # Number of cycles rename is running
system.cpu.rename.UnblockCycles               8272080                       # Number of cycles rename is unblocking
system.cpu.rename.RenamedInsts              108561026                       # Number of instructions processed by rename
system.cpu.rename.IQFullEvents                2388974                       # Number of times rename has blocked due to IQ full
system.cpu.rename.LQFullEvents                2480606                       # Number of times rename has blocked due to LQ full
system.cpu.rename.SQFullEvents                3296959                       # Number of times rename has blocked due to SQ full
system.cpu.rename.RenamedOperands           117710796                       # Number of destination operands rename has renamed
system.cpu.rename.RenameLookups             485010935                       # Number of register rename lookups that rename has made
system.cpu.rename.int_rename_lookups        109834921                       # Number of integer rename lookups
system.cpu.rename.CommittedMaps             104969990                       # Number of HB maps that are committed
system.cpu.rename.UndoneMaps                 12740797                       # Number of HB maps that are undone due to squashing
system.cpu.rename.serializingInsts              10621                       # count of serializing insts renamed
system.cpu.rename.tempSerializingInsts          10625                       # count of temporary serializing insts renamed
system.cpu.rename.skidInsts                   7833080                       # count of insts added to the skid buffer
system.cpu.memDep0.insertedLoads             37521330                       # Number of loads inserted to the mem dependence unit.
system.cpu.memDep0.insertedStores             7168050                       # Number of stores inserted to the mem dependence unit.
system.cpu.memDep0.conflictingLoads           6583529                       # Number of conflicting loads.
system.cpu.memDep0.conflictingStores           687764                       # Number of conflicting stores.
system.cpu.iq.iqInstsAdded                  106437002                       # Number of instructions added to the IQ (excludes non-spec)
system.cpu.iq.iqNonSpecInstsAdded               16442                       # Number of non-speculative instructions added to the IQ
system.cpu.iq.iqInstsIssued                 102953164                       # Number of instructions issued
system.cpu.iq.iqSquashedInstsIssued             12800                       # Number of squashed instructions issued
system.cpu.iq.iqSquashedInstsExamined         9779485                       # Number of squashed instructions iterated over during squash; mainly for profiling
system.cpu.iq.iqSquashedOperandsExamined     22388229                       # Number of squashed operands that are examined and possibly removed from graph
system.cpu.iq.iqSquashedNonSpecRemoved            931                       # Number of squashed non-spec instructions that were removed
system.cpu.iq.issued_per_cycle::samples      43465836                       # Number of insts issued each cycle
system.cpu.iq.issued_per_cycle::mean         2.368600                       # Number of insts issued each cycle
system.cpu.iq.issued_per_cycle::stdev        2.128974                       # Number of insts issued each cycle
system.cpu.iq.issued_per_cycle::underflows            0      0.00%      0.00% # Number of insts issued each cycle
system.cpu.iq.issued_per_cycle::0            12577997     28.94%     28.94% # Number of insts issued each cycle
system.cpu.iq.issued_per_cycle::1             5222297     12.01%     40.95% # Number of insts issued each cycle
system.cpu.iq.issued_per_cycle::2             7245704     16.67%     57.62% # Number of insts issued each cycle
system.cpu.iq.issued_per_cycle::3             4825570     11.10%     68.72% # Number of insts issued each cycle
system.cpu.iq.issued_per_cycle::4             5200545     11.96%     80.69% # Number of insts issued each cycle
system.cpu.iq.issued_per_cycle::5             4111736      9.46%     90.15% # Number of insts issued each cycle
system.cpu.iq.issued_per_cycle::6             2995281      6.89%     97.04% # Number of insts issued each cycle
system.cpu.iq.issued_per_cycle::7              863445      1.99%     99.03% # Number of insts issued each cycle
system.cpu.iq.issued_per_cycle::8              423261      0.97%    100.00% # Number of insts issued each cycle
system.cpu.iq.issued_per_cycle::overflows            0      0.00%    100.00% # Number of insts issued each cycle
system.cpu.iq.issued_per_cycle::min_value            0                       # Number of insts issued each cycle
system.cpu.iq.issued_per_cycle::max_value            8                       # Number of insts issued each cycle
system.cpu.iq.issued_per_cycle::total        43465836                       # Number of insts issued each cycle
system.cpu.iq.fu_full::No_OpClass                   0      0.00%      0.00% # attempts to use FU when none available
system.cpu.iq.fu_full::IntAlu                  771288     35.31%     35.31% # attempts to use FU when none available
system.cpu.iq.fu_full::IntMult                      0      0.00%     35.31% # attempts to use FU when none available
system.cpu.iq.fu_full::IntDiv                       0      0.00%     35.31% # attempts to use FU when none available
system.cpu.iq.fu_full::FloatAdd                     0      0.00%     35.31% # attempts to use FU when none available
system.cpu.iq.fu_full::FloatCmp                     0      0.00%     35.31% # attempts to use FU when none available
system.cpu.iq.fu_full::FloatCvt                     0      0.00%     35.31% # attempts to use FU when none available
system.cpu.iq.fu_full::FloatMult                    0      0.00%     35.31% # attempts to use FU when none available
system.cpu.iq.fu_full::FloatMultAcc                 0      0.00%     35.31% # attempts to use FU when none available
system.cpu.iq.fu_full::FloatDiv                     0      0.00%     35.31% # attempts to use FU when none available
system.cpu.iq.fu_full::FloatMisc                    0      0.00%     35.31% # attempts to use FU when none available
system.cpu.iq.fu_full::FloatSqrt                    0      0.00%     35.31% # attempts to use FU when none available
system.cpu.iq.fu_full::SimdAdd                      0      0.00%     35.31% # attempts to use FU when none available
system.cpu.iq.fu_full::SimdAddAcc                   0      0.00%     35.31% # attempts to use FU when none available
system.cpu.iq.fu_full::SimdAlu                      0      0.00%     35.31% # attempts to use FU when none available
system.cpu.iq.fu_full::SimdCmp                      0      0.00%     35.31% # attempts to use FU when none available
system.cpu.iq.fu_full::SimdCvt                      0      0.00%     35.31% # attempts to use FU when none available
system.cpu.iq.fu_full::SimdMisc                     0      0.00%     35.31% # attempts to use FU when none available
system.cpu.iq.fu_full::SimdMult                     0      0.00%     35.31% # attempts to use FU when none available
system.cpu.iq.fu_full::SimdMultAcc                  0      0.00%     35.31% # attempts to use FU when none available
system.cpu.iq.fu_full::SimdShift                    0      0.00%     35.31% # attempts to use FU when none available
system.cpu.iq.fu_full::SimdShiftAcc                 0      0.00%     35.31% # attempts to use FU when none available
system.cpu.iq.fu_full::SimdSqrt                     0      0.00%     35.31% # attempts to use FU when none available
system.cpu.iq.fu_full::SimdFloatAdd                 0      0.00%     35.31% # attempts to use FU when none available
system.cpu.iq.fu_full::SimdFloatAlu                 0      0.00%     35.31% # attempts to use FU when none available
system.cpu.iq.fu_full::SimdFloatCmp                 0      0.00%     35.31% # attempts to use FU when none available
system.cpu.iq.fu_full::SimdFloatCvt                 0      0.00%     35.31% # attempts to use FU when none available
system.cpu.iq.fu_full::SimdFloatDiv                 0      0.00%     35.31% # attempts to use FU when none available
system.cpu.iq.fu_full::SimdFloatMisc                0      0.00%     35.31% # attempts to use FU when none available
system.cpu.iq.fu_full::SimdFloatMult                0      0.00%     35.31% # attempts to use FU when none available
system.cpu.iq.fu_full::SimdFloatMultAcc             0      0.00%     35.31% # attempts to use FU when none available
system.cpu.iq.fu_full::SimdFloatSqrt                0      0.00%     35.31% # attempts to use FU when none available
system.cpu.iq.fu_full::MemRead                1253631     57.39%     92.70% # attempts to use FU when none available
system.cpu.iq.fu_full::MemWrite                159343      7.30%    100.00% # attempts to use FU when none available
system.cpu.iq.fu_full::FloatMemRead                 0      0.00%    100.00% # attempts to use FU when none available
system.cpu.iq.fu_full::FloatMemWrite                0      0.00%    100.00% # attempts to use FU when none available
system.cpu.iq.fu_full::IprAccess                    0      0.00%    100.00% # attempts to use FU when none available
system.cpu.iq.fu_full::InstPrefetch                 0      0.00%    100.00% # attempts to use FU when none available
system.cpu.iq.FU_type_0::No_OpClass                98      0.00%      0.00% # Type of FU issued
system.cpu.iq.FU_type_0::IntAlu              59121444     57.43%     57.43% # Type of FU issued
system.cpu.iq.FU_type_0::IntMult                 5903      0.01%     57.43% # Type of FU issued
system.cpu.iq.FU_type_0::IntDiv                     0      0.00%     57.43% # Type of FU issued
system.cpu.iq.FU_type_0::FloatAdd                   0      0.00%     57.43% # Type of FU issued
system.cpu.iq.FU_type_0::FloatCmp                   0      0.00%     57.43% # Type of FU issued
system.cpu.iq.FU_type_0::FloatCvt                   0      0.00%     57.43% # Type of FU issued
system.cpu.iq.FU_type_0::FloatMult                  0      0.00%     57.43% # Type of FU issued
system.cpu.iq.FU_type_0::FloatMultAcc               0      0.00%     57.43% # Type of FU issued
system.cpu.iq.FU_type_0::FloatDiv                   0      0.00%     57.43% # Type of FU issued
system.cpu.iq.FU_type_0::FloatMisc                  0      0.00%     57.43% # Type of FU issued
system.cpu.iq.FU_type_0::FloatSqrt                  0      0.00%     57.43% # Type of FU issued
system.cpu.iq.FU_type_0::SimdAdd                    0      0.00%     57.43% # Type of FU issued
system.cpu.iq.FU_type_0::SimdAddAcc                 0      0.00%     57.43% # Type of FU issued
system.cpu.iq.FU_type_0::SimdAlu                    0      0.00%     57.43% # Type of FU issued
system.cpu.iq.FU_type_0::SimdCmp                    0      0.00%     57.43% # Type of FU issued
system.cpu.iq.FU_type_0::SimdCvt                    0      0.00%     57.43% # Type of FU issued
system.cpu.iq.FU_type_0::SimdMisc                   0      0.00%     57.43% # Type of FU issued
system.cpu.iq.FU_type_0::SimdMult                   0      0.00%     57.43% # Type of FU issued
system.cpu.iq.FU_type_0::SimdMultAcc                0      0.00%     57.43% # Type of FU issued
system.cpu.iq.FU_type_0::SimdShift                  0      0.00%     57.43% # Type of FU issued
system.cpu.iq.FU_type_0::SimdShiftAcc               0      0.00%     57.43% # Type of FU issued
system.cpu.iq.FU_type_0::SimdSqrt                   0      0.00%     57.43% # Type of FU issued
system.cpu.iq.FU_type_0::SimdFloatAdd               0      0.00%     57.43% # Type of FU issued
system.cpu.iq.FU_type_0::SimdFloatAlu               0      0.00%     57.43% # Type of FU issued
system.cpu.iq.FU_type_0::SimdFloatCmp               0      0.00%     57.43% # Type of FU issued
system.cpu.iq.FU_type_0::SimdFloatCvt               0      0.00%     57.43% # Type of FU issued
system.cpu.iq.FU_type_0::SimdFloatDiv               0      0.00%     57.43% # Type of FU issued
system.cpu.iq.FU_type_0::SimdFloatMisc              0      0.00%     57.43% # Type of FU issued
system.cpu.iq.FU_type_0::SimdFloatMult              0      0.00%     57.43% # Type of FU issued
system.cpu.iq.FU_type_0::SimdFloatMultAcc            0      0.00%     57.43% # Type of FU issued
system.cpu.iq.FU_type_0::SimdFloatSqrt              0      0.00%     57.43% # Type of FU issued
system.cpu.iq.FU_type_0::MemRead             37061260     36.00%     93.43% # Type of FU issued
system.cpu.iq.FU_type_0::MemWrite             6764459      6.57%    100.00% # Type of FU issued
system.cpu.iq.FU_type_0::FloatMemRead               0      0.00%    100.00% # Type of FU issued
system.cpu.iq.FU_type_0::FloatMemWrite              0      0.00%    100.00% # Type of FU issued
system.cpu.iq.FU_type_0::IprAccess                  0      0.00%    100.00% # Type of FU issued
system.cpu.iq.FU_type_0::InstPrefetch               0      0.00%    100.00% # Type of FU issued
system.cpu.iq.FU_type_0::total              102953164                       # Type of FU issued
system.cpu.iq.rate                           2.368133                       # Inst issue rate
system.cpu.iq.fu_busy_cnt                     2184262                       # FU busy when requested
system.cpu.iq.fu_busy_rate                   0.021216                       # FU busy rate (busy events/executed inst)
system.cpu.iq.int_inst_queue_reads          251569225                       # Number of integer instruction queue reads
system.cpu.iq.int_inst_queue_writes         116235241                       # Number of integer instruction queue writes
system.cpu.iq.int_inst_queue_wakeup_accesses    101422261                       # Number of integer instruction queue wakeup accesses
system.cpu.iq.fp_inst_queue_reads                   0                       # Number of floating instruction queue reads
system.cpu.iq.fp_inst_queue_writes                  0                       # Number of floating instruction queue writes
system.cpu.iq.fp_inst_queue_wakeup_accesses            0                       # Number of floating instruction queue wakeup accesses
system.cpu.iq.vec_inst_queue_reads                  0                       # Number of vector instruction queue reads
system.cpu.iq.vec_inst_queue_writes                 0                       # Number of vector instruction queue writes
system.cpu.iq.vec_inst_queue_wakeup_accesses            0                       # Number of vector instruction queue wakeup accesses
system.cpu.iq.int_alu_accesses              105137328                       # Number of integer alu accesses
system.cpu.iq.fp_alu_accesses                       0                       # Number of floating point alu accesses
system.cpu.iq.vec_alu_accesses                      0                       # Number of vector alu accesses
system.cpu.iew.lsq.thread0.forwLoads         11121195                       # Number of loads that had data forwarded from stores
system.cpu.iew.lsq.thread0.invAddrLoads             0                       # Number of loads ignored due to an invalid address
system.cpu.iew.lsq.thread0.squashedLoads      4195272                       # Number of loads squashed
system.cpu.iew.lsq.thread0.ignoredResponses       121440                       # Number of memory responses ignored because the instruction is squashed
system.cpu.iew.lsq.thread0.memOrderViolation         2438                       # Number of memory ordering violations
system.cpu.iew.lsq.thread0.squashedStores       675414                       # Number of stores squashed
system.cpu.iew.lsq.thread0.invAddrSwpfs             0                       # Number of software prefetches ignored due to an invalid address
system.cpu.iew.lsq.thread0.blockedLoads             0                       # Number of blocked loads due to partial load-store forwarding
system.cpu.iew.lsq.thread0.rescheduledLoads       125875                       # Number of loads that were rescheduled
system.cpu.iew.lsq.thread0.cacheBlocked            53                       # Number of times an access to memory failed due to the cache being blocked
system.cpu.iew.iewIdleCycles                        0                       # Number of cycles IEW is idle
system.cpu.iew.iewSquashCycles                 313017                       # Number of cycles IEW is squashing
system.cpu.iew.iewBlockCycles                 5838338                       # Number of cycles IEW is blocking
system.cpu.iew.iewUnblockCycles                115176                       # Number of cycles IEW is unblocking
system.cpu.iew.iewDispatchedInsts           106453444                       # Number of instructions dispatched to IQ
system.cpu.iew.iewDispSquashedInsts             62282                       # Number of squashed instructions skipped by dispatch
system.cpu.iew.iewDispLoadInsts              37521330                       # Number of dispatched load instructions
system.cpu.iew.iewDispStoreInsts              7168050                       # Number of dispatched store instructions
system.cpu.iew.iewDispNonSpecInsts               8690                       # Number of dispatched non-speculative instructions
system.cpu.iew.iewIQFullEvents                   5485                       # Number of times the IQ has become full, causing a stall
system.cpu.iew.iewLSQFullEvents                 82641                       # Number of times the LSQ has become full, causing a stall
system.cpu.iew.memOrderViolationEvents           2438                       # Number of memory order violations
system.cpu.iew.predictedTakenIncorrect         180584                       # Number of branches that were predicted taken incorrectly
system.cpu.iew.predictedNotTakenIncorrect       222713                       # Number of branches that were predicted not taken incorrectly
system.cpu.iew.branchMispredicts               403297                       # Number of branch mispredicts detected at execute
system.cpu.iew.iewExecutedInsts             102429797                       # Number of executed instructions
system.cpu.iew.iewExecLoadInsts              36627781                       # Number of load instructions executed
system.cpu.iew.iewExecSquashedInsts            523366                       # Number of squashed instructions skipped in execute
system.cpu.iew.exec_swp                             0                       # number of swp insts executed
system.cpu.iew.exec_nop                             0                       # number of nop insts executed
system.cpu.iew.exec_refs                     43378563                       # number of memory reference insts executed
system.cpu.iew.exec_branches                 19305691                       # Number of branches executed
system.cpu.iew.exec_stores                    6750782                       # Number of stores executed
system.cpu.iew.exec_rate                     2.356095                       # Inst execution rate
system.cpu.iew.wb_sent                      101796689                       # cumulative count of insts sent to commit
system.cpu.iew.wb_count                     101422261                       # cumulative count of insts written-back
system.cpu.iew.wb_producers                  69790585                       # num instructions producing a value
system.cpu.iew.wb_consumers                 100265044                       # num instructions consuming a value
system.cpu.iew.wb_rate                       2.332919                       # insts written-back per cycle
system.cpu.iew.wb_fanout                     0.696061                       # average fanout of values written-back
system.cpu.commit.commitSquashedInsts         9779587                       # The number of squashed insts skipped by commit
system.cpu.commit.commitNonSpecStalls           15511                       # The number of times commit has been forced to stall to communicate backwards
system.cpu.commit.branchMispredicts            311128                       # The number of times a branch was mispredicted
system.cpu.commit.committed_per_cycle::samples     42040213                       # Number of insts commited each cycle
system.cpu.commit.committed_per_cycle::mean     2.299559                       # Number of insts commited each cycle
system.cpu.commit.committed_per_cycle::stdev     2.799477                       # Number of insts commited each cycle
system.cpu.commit.committed_per_cycle::underflows            0      0.00%      0.00% # Number of insts commited each cycle
[...]
system.l2.demand_accesses::total                85880                       # number of demand (read+write) accesses
system.l2.overall_accesses::.cpu.inst            4945                       # number of overall (read+write) accesses
system.l2.overall_accesses::.cpu.data           80935                       # number of overall (read+write) accesses
system.l2.overall_accesses::total               85880                       # number of overall (read+write) accesses
system.l2.ReadExReq_miss_rate::.cpu.data     0.864937                       # miss rate for ReadExReq accesses
system.l2.ReadExReq_miss_rate::total         0.864937                       # miss rate for ReadExReq accesses
system.l2.ReadCleanReq_miss_rate::.cpu.inst     0.025683                       # miss rate for ReadCleanReq accesses
system.l2.ReadCleanReq_miss_rate::total      0.025683                       # miss rate for ReadCleanReq accesses
system.l2.ReadSharedReq_miss_rate::.cpu.data     0.800215                       # miss rate for ReadSharedReq accesses
system.l2.ReadSharedReq_miss_rate::total     0.800215                       # miss rate for ReadSharedReq accesses
system.l2.demand_miss_rate::.cpu.inst        0.025683                       # miss rate for demand accesses
system.l2.demand_miss_rate::.cpu.data        0.832915                       # miss rate for demand accesses
system.l2.demand_miss_rate::total            0.786435                       # miss rate for demand accesses
system.l2.overall_miss_rate::.cpu.inst       0.025683                       # miss rate for overall accesses
system.l2.overall_miss_rate::.cpu.data       0.832915                       # miss rate for overall accesses
system.l2.overall_miss_rate::total           0.786435                       # miss rate for overall accesses
system.l2.ReadExReq_avg_miss_latency::.cpu.data 91205.844101                       # average ReadExReq miss latency
system.l2.ReadExReq_avg_miss_latency::total 91205.844101                       # average ReadExReq miss latency
system.l2.ReadCleanReq_avg_miss_latency::.cpu.inst 89807.086614                       # average ReadCleanReq miss latency
system.l2.ReadCleanReq_avg_miss_latency::total 89807.086614                       # average ReadCleanReq miss latency
system.l2.ReadSharedReq_avg_miss_latency::.cpu.data 83695.580938                       # average ReadSharedReq miss latency
system.l2.ReadSharedReq_avg_miss_latency::total 83695.580938                       # average ReadSharedReq miss latency
system.l2.demand_avg_miss_latency::.cpu.inst 89807.086614                       # average overall miss latency
system.l2.demand_avg_miss_latency::.cpu.data 87635.984691                       # average overall miss latency
system.l2.demand_avg_miss_latency::total 87640.067220                       # average overall miss latency
system.l2.overall_avg_miss_latency::.cpu.inst 89807.086614                       # average overall miss latency
system.l2.overall_avg_miss_latency::.cpu.data 87635.984691                       # average overall miss latency
system.l2.overall_avg_miss_latency::total 87640.067220                       # average overall miss latency
system.l2.blocked_cycles::no_mshrs                  0                       # number of cycles access was blocked
system.l2.blocked_cycles::no_targets                0                       # number of cycles access was blocked
system.l2.blocked::no_mshrs                         0                       # number of cycles access was blocked
system.l2.blocked::no_targets                       0                       # number of cycles access was blocked
system.l2.avg_blocked_cycles::no_mshrs            nan                       # average number of cycles each access was blocked
system.l2.avg_blocked_cycles::no_targets          nan                       # average number of cycles each access was blocked
system.l2.writebacks::.writebacks               34868                       # number of writebacks
system.l2.writebacks::total                     34868                       # number of writebacks
system.l2.ReadSharedReq_mshr_hits::.cpu.data            4                       # number of ReadSharedReq MSHR hits
system.l2.ReadSharedReq_mshr_hits::total            4                       # number of ReadSharedReq MSHR hits
system.l2.demand_mshr_hits::.cpu.data               4                       # number of demand (read+write) MSHR hits
system.l2.demand_mshr_hits::total                   4                       # number of demand (read+write) MSHR hits
system.l2.overall_mshr_hits::.cpu.data              4                       # number of overall MSHR hits
system.l2.overall_mshr_hits::total                  4                       # number of overall MSHR hits
system.l2.CleanEvict_mshr_misses::.writebacks            1                       # number of CleanEvict MSHR misses
system.l2.CleanEvict_mshr_misses::total             1                       # number of CleanEvict MSHR misses
system.l2.ReadExReq_mshr_misses::.cpu.data        35369                       # number of ReadExReq MSHR misses
system.l2.ReadExReq_mshr_misses::total          35369                       # number of ReadExReq MSHR misses
system.l2.ReadCleanReq_mshr_misses::.cpu.inst          127                       # number of ReadCleanReq MSHR misses
system.l2.ReadCleanReq_mshr_misses::total          127                       # number of ReadCleanReq MSHR misses
system.l2.ReadSharedReq_mshr_misses::.cpu.data        32039                       # number of ReadSharedReq MSHR misses
system.l2.ReadSharedReq_mshr_misses::total        32039                       # number of ReadSharedReq MSHR misses
system.l2.demand_mshr_misses::.cpu.inst           127                       # number of demand (read+write) MSHR misses
system.l2.demand_mshr_misses::.cpu.data         67408                       # number of demand (read+write) MSHR misses
system.l2.demand_mshr_misses::total             67535                       # number of demand (read+write) MSHR misses
system.l2.overall_mshr_misses::.cpu.inst          127                       # number of overall MSHR misses
system.l2.overall_mshr_misses::.cpu.data        67408                       # number of overall MSHR misses
system.l2.overall_mshr_misses::total            67535                       # number of overall MSHR misses
system.l2.ReadExReq_mshr_miss_latency::.cpu.data   2872169500                       # number of ReadExReq MSHR miss cycles
system.l2.ReadExReq_mshr_miss_latency::total   2872169500                       # number of ReadExReq MSHR miss cycles
system.l2.ReadCleanReq_mshr_miss_latency::.cpu.inst     10145500                       # number of ReadCleanReq MSHR miss cycles
system.l2.ReadCleanReq_mshr_miss_latency::total     10145500                       # number of ReadCleanReq MSHR miss cycles
system.l2.ReadSharedReq_mshr_miss_latency::.cpu.data   2361035500                       # number of ReadSharedReq MSHR miss cycles
system.l2.ReadSharedReq_mshr_miss_latency::total   2361035500                       # number of ReadSharedReq MSHR miss cycles
system.l2.demand_mshr_miss_latency::.cpu.inst     10145500                       # number of demand (read+write) MSHR miss cycles
system.l2.demand_mshr_miss_latency::.cpu.data   5233205000                       # number of demand (read+write) MSHR miss cycles
system.l2.demand_mshr_miss_latency::total   5243350500                       # number of demand (read+write) MSHR miss cycles
system.l2.overall_mshr_miss_latency::.cpu.inst     10145500                       # number of overall MSHR miss cycles
system.l2.overall_mshr_miss_latency::.cpu.data   5233205000                       # number of overall MSHR miss cycles
system.l2.overall_mshr_miss_latency::total   5243350500                       # number of overall MSHR miss cycles
system.l2.CleanEvict_mshr_miss_rate::.writebacks          inf                       # mshr miss rate for CleanEvict accesses
system.l2.CleanEvict_mshr_miss_rate::total          inf                       # mshr miss rate for CleanEvict accesses
system.l2.ReadExReq_mshr_miss_rate::.cpu.data     0.864937                       # mshr miss rate for ReadExReq accesses
system.l2.ReadExReq_mshr_miss_rate::total     0.864937                       # mshr miss rate for ReadExReq accesses
system.l2.ReadCleanReq_mshr_miss_rate::.cpu.inst     0.025683                       # mshr miss rate for ReadCleanReq accesses
system.l2.ReadCleanReq_mshr_miss_rate::total     0.025683                       # mshr miss rate for ReadCleanReq accesses
system.l2.ReadSharedReq_mshr_miss_rate::.cpu.data     0.800115                       # mshr miss rate for ReadSharedReq accesses
system.l2.ReadSharedReq_mshr_miss_rate::total     0.800115                       # mshr miss rate for ReadSharedReq accesses
system.l2.demand_mshr_miss_rate::.cpu.inst     0.025683                       # mshr miss rate for demand accesses
system.l2.demand_mshr_miss_rate::.cpu.data     0.832866                       # mshr miss rate for demand accesses
system.l2.demand_mshr_miss_rate::total       0.786388                       # mshr miss rate for demand accesses
system.l2.overall_mshr_miss_rate::.cpu.inst     0.025683                       # mshr miss rate for overall accesses
system.l2.overall_mshr_miss_rate::.cpu.data     0.832866                       # mshr miss rate for overall accesses
system.l2.overall_mshr_miss_rate::total      0.786388                       # mshr miss rate for overall accesses
system.l2.ReadExReq_avg_mshr_miss_latency::.cpu.data 81205.844101                       # average ReadExReq mshr miss latency
system.l2.ReadExReq_avg_mshr_miss_latency::total 81205.844101                       # average ReadExReq mshr miss latency
system.l2.ReadCleanReq_avg_mshr_miss_latency::.cpu.inst 79885.826772                       # average ReadCleanReq mshr miss latency
system.l2.ReadCleanReq_avg_mshr_miss_latency::total 79885.826772                       # average ReadCleanReq mshr miss latency
system.l2.ReadSharedReq_avg_mshr_miss_latency::.cpu.data 73692.546584                       # average ReadSharedReq mshr miss latency
system.l2.ReadSharedReq_avg_mshr_miss_latency::total 73692.546584                       # average ReadSharedReq mshr miss latency
system.l2.demand_avg_mshr_miss_latency::.cpu.inst 79885.826772                       # average overall mshr miss latency
system.l2.demand_avg_mshr_miss_latency::.cpu.data 77634.776288                       # average overall mshr miss latency
system.l2.demand_avg_mshr_miss_latency::total 77639.009403                       # average overall mshr miss latency
system.l2.overall_avg_mshr_miss_latency::.cpu.inst 79885.826772                       # average overall mshr miss latency
system.l2.overall_avg_mshr_miss_latency::.cpu.data 77634.776288                       # average overall mshr miss latency
system.l2.overall_avg_mshr_miss_latency::total 77639.009403                       # average overall mshr miss latency
system.l2.replacements                          35573                       # number of replacements
system.membus.snoop_filter.tot_requests        102855                       # Total number of requests made to the snoop filter.
system.membus.snoop_filter.hit_single_requests        35320                       # Number of requests hitting in the snoop filter with a single holder of the requested data.
system.membus.snoop_filter.hit_multi_requests            0                       # Number of requests hitting in the snoop filter with multiple (>1) holders of the requested data.
system.membus.snoop_filter.tot_snoops               0                       # Total number of snoops made to the snoop filter.
system.membus.snoop_filter.hit_single_snoops            0                       # Number of snoops hitting in the snoop filter with a single holder of the requested data.
system.membus.snoop_filter.hit_multi_snoops            0                       # Number of snoops hitting in the snoop filter with multiple (>1) holders of the requested data.
system.membus.pwrStateResidencyTicks::UNDEFINED  21778279500                       # Cumulative time (in ticks) in various power states
system.membus.trans_dist::ReadResp              32165                       # Transaction distribution
system.membus.trans_dist::WritebackDirty        34868                       # Transaction distribution
system.membus.trans_dist::CleanEvict              451                       # Transaction distribution
system.membus.trans_dist::ReadExReq             35369                       # Transaction distribution
system.membus.trans_dist::ReadExResp            35369                       # Transaction distribution
system.membus.trans_dist::ReadSharedReq         32167                       # Transaction distribution
system.membus.pkt_count_system.l2.mem_side::system.mem_ctrls.port       170389                       # Packet count per connected master and slave (bytes)
system.membus.pkt_count::total                 170389                       # Packet count per connected master and slave (bytes)
system.membus.pkt_size_system.l2.mem_side::system.mem_ctrls.port      6553728                       # Cumulative packet size per connected master and slave (bytes)
system.membus.pkt_size::total                 6553728                       # Cumulative packet size per connected master and slave (bytes)
system.membus.snoops                                0                       # Total snoops (count)
system.membus.snoopTraffic                          0                       # Total snoop traffic (bytes)
system.membus.snoop_fanout::samples             67536                       # Request fanout histogram
system.membus.snoop_fanout::mean                    0                       # Request fanout histogram
system.membus.snoop_fanout::stdev                   0                       # Request fanout histogram
system.membus.snoop_fanout::underflows              0      0.00%      0.00% # Request fanout histogram
system.membus.snoop_fanout::0                   67536    100.00%    100.00% # Request fanout histogram
system.membus.snoop_fanout::1                       0      0.00%    100.00% # Request fanout histogram
system.membus.snoop_fanout::overflows               0      0.00%    100.00% # Request fanout histogram
system.membus.snoop_fanout::min_value               0                       # Request fanout histogram
system.membus.snoop_fanout::max_value               0                       # Request fanout histogram
system.membus.snoop_fanout::total               67536                       # Request fanout histogram
system.membus.reqLayer0.occupancy           255101000                       # Layer occupancy (ticks)
system.membus.reqLayer0.utilization               1.2                       # Layer utilization (%)
system.membus.respLayer1.occupancy          355646250                       # Layer occupancy (ticks)
system.membus.respLayer1.utilization              1.6                       # Layer utilization (%)
system.tol2bus.snoop_filter.tot_requests       171666                       # Total number of requests made to the snoop filter.
system.tol2bus.snoop_filter.hit_single_requests        85790                       # Number of requests hitting in the snoop filter with a single holder of the requested data.
system.tol2bus.snoop_filter.hit_multi_requests         1160                       # Number of requests hitting in the snoop filter with multiple (>1) holders of the requested data.
system.tol2bus.snoop_filter.tot_snoops            255                       # Total number of snoops made to the snoop filter.
system.tol2bus.snoop_filter.hit_single_snoops          255                       # Number of snoops hitting in the snoop filter with a single holder of the requested data.
system.tol2bus.snoop_filter.hit_multi_snoops            0                       # Number of snoops hitting in the snoop filter with multiple (>1) holders of the requested data.
system.tol2bus.pwrStateResidencyTicks::UNDEFINED  21778279500                       # Cumulative time (in ticks) in various power states
system.tol2bus.trans_dist::ReadResp             44987                       # Transaction distribution
system.tol2bus.trans_dist::WritebackDirty       111654                       # Transaction distribution
system.tol2bus.trans_dist::WritebackClean         4942                       # Transaction distribution
system.tol2bus.trans_dist::CleanEvict            4763                       # Transaction distribution
system.tol2bus.trans_dist::ReadExReq            40892                       # Transaction distribution
system.tol2bus.trans_dist::ReadExResp           40892                       # Transaction distribution
system.tol2bus.trans_dist::ReadCleanReq          4945                       # Transaction distribution
system.tol2bus.trans_dist::ReadSharedReq        40043                       # Transaction distribution
system.tol2bus.pkt_count_system.cpu.icache.mem_side::system.l2.cpu_side        14831                       # Packet count per connected master and slave (bytes)
system.tol2bus.pkt_count_system.cpu.dcache.mem_side::system.l2.cpu_side       242714                       # Packet count per connected master and slave (bytes)
system.tol2bus.pkt_count::total                257545                       # Packet count per connected master and slave (bytes)
system.tol2bus.pkt_size_system.cpu.icache.mem_side::system.l2.cpu_side       632704                       # Cumulative packet size per connected master and slave (bytes)
system.tol2bus.pkt_size_system.cpu.dcache.mem_side::system.l2.cpu_side     10094144                       # Cumulative packet size per connected master and slave (bytes)
system.tol2bus.pkt_size::total               10726848                       # Cumulative packet size per connected master and slave (bytes)
system.tol2bus.snoops                           35573                       # Total snoops (count)
system.tol2bus.snoopTraffic                   2231552                       # Total snoop traffic (bytes)
system.tol2bus.snoop_fanout::samples           121453                       # Request fanout histogram
system.tol2bus.snoop_fanout::mean            0.011684                       # Request fanout histogram
system.tol2bus.snoop_fanout::stdev           0.107458                       # Request fanout histogram
system.tol2bus.snoop_fanout::underflows             0      0.00%      0.00% # Request fanout histogram
system.tol2bus.snoop_fanout::0                 120034     98.83%     98.83% # Request fanout histogram
system.tol2bus.snoop_fanout::1                   1419      1.17%    100.00% # Request fanout histogram
system.tol2bus.snoop_fanout::2                      0      0.00%    100.00% # Request fanout histogram
system.tol2bus.snoop_fanout::overflows              0      0.00%    100.00% # Request fanout histogram
system.tol2bus.snoop_fanout::min_value              0                       # Request fanout histogram
system.tol2bus.snoop_fanout::max_value              1                       # Request fanout histogram
system.tol2bus.snoop_fanout::total             121453                       # Request fanout histogram
system.tol2bus.reqLayer0.occupancy          167561000                       # Layer occupancy (ticks)
system.tol2bus.reqLayer0.utilization              0.8                       # Layer utilization (%)
system.tol2bus.respLayer0.occupancy           7416000                       # Layer occupancy (ticks)
system.tol2bus.respLayer0.utilization             0.0                       # Layer utilization (%)
system.tol2bus.respLayer1.occupancy         121408987                       # Layer occupancy (ticks)
system.tol2bus.respLayer1.utilization             0.6                       # Layer utilization (%)

---------- End Simulation Statistics   ----------
