
---------- Begin Simulation Statistics ----------
sim_seconds                                  0.039938                       # Number of seconds simulated
sim_ticks                                 39937699500                       # Number of ticks simulated
final_tick                                39977466500                       # Number of ticks from beginning of simulation (restored from checkpoints and never reset)
sim_freq                                 1000000000000                       # Frequency of simulated ticks
host_inst_rate                                 233352                       # Simulator instruction rate (inst/s)
host_op_rate                                   257814                       # Simulator op (including micro ops) rate (op/s)
host_tick_rate                              106494327                       # Simulator tick rate (ticks/s)
host_mem_usage                                 813764                       # Number of bytes of host memory used
host_seconds                                   375.02                       # Real time elapsed on the host
sim_insts                                    87512087                       # Number of instructions simulated
sim_ops                                      96685734                       # Number of ops (including micro ops) simulated
system.voltage_domain.voltage                       1                       # Voltage in Volts
system.clk_domain.clock                          1000                       # Clock period in ticks
system.mem_ctrls.pwrStateResidencyTicks::UNDEFINED  39977466500                       # Cumulative time (in ticks) in various power states
system.mem_ctrls.bytes_read::.cpu.inst           4352                       # Number of bytes read from this memory
system.mem_ctrls.bytes_read::.cpu.data        4312832                       # Number of bytes read from this memory
system.mem_ctrls.bytes_read::total            4317184                       # Number of bytes read from this memory
system.mem_ctrls.bytes_inst_read::.cpu.inst         4352                       # Number of instructions bytes read from this memory
system.mem_ctrls.bytes_inst_read::total          4352                       # Number of instructions bytes read from this memory
system.mem_ctrls.bytes_written::.writebacks      2220736                       # Number of bytes written to this memory
system.mem_ctrls.bytes_written::total         2220736                       # Number of bytes written to this memory
system.mem_ctrls.num_reads::.cpu.inst              68                       # Number of read requests responded to by this memory
system.mem_ctrls.num_reads::.cpu.data           67388                       # Number of read requests responded to by this memory
system.mem_ctrls.num_reads::total               67456                       # Number of read requests responded to by this memory
system.mem_ctrls.num_writes::.writebacks        34699                       # Number of write requests responded to by this memory
system.mem_ctrls.num_writes::total              34699                       # Number of write requests responded to by this memory
system.mem_ctrls.bw_read::.cpu.inst            108970                       # Total read bandwidth from this memory (bytes/s)
system.mem_ctrls.bw_read::.cpu.data         107988994                       # Total read bandwidth from this memory (bytes/s)
system.mem_ctrls.bw_read::total             108097964                       # Total read bandwidth from this memory (bytes/s)
system.mem_ctrls.bw_inst_read::.cpu.inst       108970                       # Instruction read bandwidth from this memory (bytes/s)
system.mem_ctrls.bw_inst_read::total           108970                       # Instruction read bandwidth from this memory (bytes/s)
system.mem_ctrls.bw_write::.writebacks       55605005                       # Write bandwidth from this memory (bytes/s)
system.mem_ctrls.bw_write::total             55605005                       # Write bandwidth from this memory (bytes/s)
system.mem_ctrls.bw_total::.writebacks       55605005                       # Total bandwidth to/from this memory (bytes/s)
system.mem_ctrls.bw_total::.cpu.inst           108970                       # Total bandwidth to/from this memory (bytes/s)
system.mem_ctrls.bw_total::.cpu.data        107988994                       # Total bandwidth to/from this memory (bytes/s)
system.mem_ctrls.bw_total::total            163702969                       # Total bandwidth to/from this memory (bytes/s)
system.mem_ctrls.avgPriority_.writebacks::samples     34699.00                       # Average QoS priority value for accepted requests
system.mem_ctrls.avgPriority_.cpu.inst::samples        68.00                       # Average QoS priority value for accepted requests
system.mem_ctrls.avgPriority_.cpu.data::samples     67388.00                       # Average QoS priority value for accepted requests
system.mem_ctrls.priorityMinLatency      0.000000018750                       # per QoS priority minimum request to response latency (s)
system.mem_ctrls.priorityMaxLatency      0.004076654500                       # per QoS priority maximum request to response latency (s)
system.mem_ctrls.numReadWriteTurnArounds         2006                       # Number of turnarounds from READ to WRITE
system.mem_ctrls.numWriteReadTurnArounds         2006                       # Number of turnarounds from WRITE to READ
system.mem_ctrls.numStayReadState              175486                       # Number of times bus staying in READ state
system.mem_ctrls.numStayWriteState              32802                       # Number of times bus staying in WRITE state
system.mem_ctrls.readReqs                       67456                       # Number of read requests accepted
system.mem_ctrls.writeReqs                      34699                       # Number of write requests accepted
system.mem_ctrls.readBursts                     67456                       # Number of DRAM read bursts, including those serviced by the write queue
system.mem_ctrls.writeBursts                    34699                       # Number of DRAM write bursts, including those merged in the write queue
system.mem_ctrls.bytesReadDRAM                4317184                       # Total number of bytes read from DRAM
system.mem_ctrls.bytesReadWrQ                       0                       # Total number of bytes read from write queue
system.mem_ctrls.bytesWritten                 2218752                       # Total number of bytes written to DRAM
system.mem_ctrls.bytesReadSys                 4317184                       # Total read bytes from the system interface side
system.mem_ctrls.bytesWrittenSys              2220736                       # Total written bytes from the system interface side
system.mem_ctrls.servicedByWrQ                      0                       # Number of DRAM read bursts serviced by the write queue
system.mem_ctrls.mergedWrBursts                     0                       # Number of DRAM write bursts merged with an existing one
system.mem_ctrls.neitherReadNorWriteReqs            0                       # Number of requests that are neither read nor write
system.mem_ctrls.perBankRdBursts::0              4261                       # Per bank write bursts
system.mem_ctrls.perBankRdBursts::1              4240                       # Per bank write bursts
system.mem_ctrls.perBankRdBursts::2              4189                       # Per bank write bursts
system.mem_ctrls.perBankRdBursts::3              4240                       # Per bank write bursts
system.mem_ctrls.perBankRdBursts::4              4225                       # Per bank write bursts
system.mem_ctrls.perBankRdBursts::5              4224                       # Per bank write bursts
system.mem_ctrls.perBankRdBursts::6              4224                       # Per bank write bursts
system.mem_ctrls.perBankRdBursts::7              4225                       # Per bank write bursts
system.mem_ctrls.perBankRdBursts::8              4226                       # Per bank write bursts
system.mem_ctrls.perBankRdBursts::9              4228                       # Per bank write bursts
system.mem_ctrls.perBankRdBursts::10             4226                       # Per bank write bursts
system.mem_ctrls.perBankRdBursts::11             4225                       # Per bank write bursts
system.mem_ctrls.perBankRdBursts::12             4229                       # Per bank write bursts
system.mem_ctrls.perBankRdBursts::13             4107                       # Per bank write bursts
system.mem_ctrls.perBankRdBursts::14             4163                       # Per bank write bursts
system.mem_ctrls.perBankRdBursts::15             4224                       # Per bank write bursts
system.mem_ctrls.perBankWrBursts::0              2182                       # Per bank write bursts
system.mem_ctrls.perBankWrBursts::1              2194                       # Per bank write bursts
system.mem_ctrls.perBankWrBursts::2              2113                       # Per bank write bursts
system.mem_ctrls.perBankWrBursts::3              2178                       # Per bank write bursts
system.mem_ctrls.perBankWrBursts::4              2177                       # Per bank write bursts
system.mem_ctrls.perBankWrBursts::5              2176                       # Per bank write bursts
system.mem_ctrls.perBankWrBursts::6              2176                       # Per bank write bursts
system.mem_ctrls.perBankWrBursts::7              2176                       # Per bank write bursts
system.mem_ctrls.perBankWrBursts::8              2177                       # Per bank write bursts
system.mem_ctrls.perBankWrBursts::9              2177                       # Per bank write bursts
system.mem_ctrls.perBankWrBursts::10             2178                       # Per bank write bursts
system.mem_ctrls.perBankWrBursts::11             2177                       # Per bank write bursts
system.mem_ctrls.perBankWrBursts::12             2176                       # Per bank write bursts
system.mem_ctrls.perBankWrBursts::13             2063                       # Per bank write bursts
system.mem_ctrls.perBankWrBursts::14             2156                       # Per bank write bursts
system.mem_ctrls.perBankWrBursts::15             2192                       # Per bank write bursts
system.mem_ctrls.numRdRetry                         0                       # Number of times read queue was full causing retry
system.mem_ctrls.numWrRetry                         0                       # Number of times write queue was full causing retry
system.mem_ctrls.totGap                   39937600500                       # Total gap between requests
system.mem_ctrls.readPktSize::0                     0                       # Read request sizes (log2)
system.mem_ctrls.readPktSize::1                     0                       # Read request sizes (log2)
system.mem_ctrls.readPktSize::2                     0                       # Read request sizes (log2)
system.mem_ctrls.readPktSize::3                     0                       # Read request sizes (log2)
system.mem_ctrls.readPktSize::4                     0                       # Read request sizes (log2)
system.mem_ctrls.readPktSize::5                     0                       # Read request sizes (log2)
system.mem_ctrls.readPktSize::6                 67456                       # Read request sizes (log2)
system.mem_ctrls.writePktSize::0                    0                       # Write request sizes (log2)
system.mem_ctrls.writePktSize::1                    0                       # Write request sizes (log2)
system.mem_ctrls.writePktSize::2                    0                       # Write request sizes (log2)
system.mem_ctrls.writePktSize::3                    0                       # Write request sizes (log2)
system.mem_ctrls.writePktSize::4                    0                       # Write request sizes (log2)
system.mem_ctrls.writePktSize::5                    0                       # Write request sizes (log2)
system.mem_ctrls.writePktSize::6                34699                       # Write request sizes (log2)
system.mem_ctrls.rdQLenPdf::0                   67438                       # What read queue length does an incoming req see
system.mem_ctrls.rdQLenPdf::1                      12                       # What read queue length does an incoming req see
system.mem_ctrls.rdQLenPdf::2                       5                       # What read queue length does an incoming req see
system.mem_ctrls.rdQLenPdf::3                       1                       # What read queue length does an incoming req see
system.mem_ctrls.rdQLenPdf::4                       0                       # What read queue length does an incoming req see
system.mem_ctrls.rdQLenPdf::5                       0                       # What read queue length does an incoming req see
system.mem_ctrls.rdQLenPdf::6                       0                       # What read queue length does an incoming req see
system.mem_ctrls.rdQLenPdf::7                       0                       # What read queue length does an incoming req see
system.mem_ctrls.rdQLenPdf::8                       0                       # What read queue length does an incoming req see
system.mem_ctrls.rdQLenPdf::9                       0                       # What read queue length does an incoming req see
system.mem_ctrls.rdQLenPdf::10                      0                       # What read queue length does an incoming req see
system.mem_ctrls.rdQLenPdf::11                      0                       # What read queue length does an incoming req see
system.mem_ctrls.rdQLenPdf::12                      0                       # What read queue length does an incoming req see
system.mem_ctrls.rdQLenPdf::13                      0                       # What read queue length does an incoming req see
system.mem_ctrls.rdQLenPdf::14                      0                       # What read queue length does an incoming req see
system.mem_ctrls.rdQLenPdf::15                      0                       # What read queue length does an incoming req see
system.mem_ctrls.rdQLenPdf::16                      0                       # What read queue length does an incoming req see
system.mem_ctrls.rdQLenPdf::17                      0                       # What read queue length does an incoming req see
system.mem_ctrls.rdQLenPdf::18                      0                       # What read queue length does an incoming req see
system.mem_ctrls.rdQLenPdf::19                      0                       # What read queue length does an incoming req see
system.mem_ctrls.rdQLenPdf::20                      0                       # What read queue length does an incoming req see
system.mem_ctrls.rdQLenPdf::21                      0                       # What read queue length does an incoming req see
system.mem_ctrls.rdQLenPdf::22                      0                       # What read queue length does an incoming req see
system.mem_ctrls.rdQLenPdf::23                      0                       # What read queue length does an incoming req see
system.mem_ctrls.rdQLenPdf::24                      0                       # What read queue length does an incoming req see
system.mem_ctrls.rdQLenPdf::25                      0                       # What read queue length does an incoming req see
system.mem_ctrls.rdQLenPdf::26                      0                       # What read queue length does an incoming req see
system.mem_ctrls.rdQLenPdf::27                      0                       # What read queue length does an incoming req see
system.mem_ctrls.rdQLenPdf::28                      0                       # What read queue length does an incoming req see
system.mem_ctrls.rdQLenPdf::29                      0                       # What read queue length does an incoming req see
system.mem_ctrls.rdQLenPdf::30                      0                       # What read queue length does an incoming req see
system.mem_ctrls.rdQLenPdf::31                      0                       # What read queue length does an incoming req see
system.mem_ctrls.wrQLenPdf::0                       1                       # What write queue length does an incoming req see
system.mem_ctrls.wrQLenPdf::1                       1                       # What write queue length does an incoming req see
system.mem_ctrls.wrQLenPdf::2                       1                       # What write queue length does an incoming req see
system.mem_ctrls.wrQLenPdf::3                       1                       # What write queue length does an incoming req see
system.mem_ctrls.wrQLenPdf::4                       1                       # What write queue length does an incoming req see
system.mem_ctrls.wrQLenPdf::5                       1                       # What write queue length does an incoming req see
system.mem_ctrls.wrQLenPdf::6                       1                       # What write queue length does an incoming req see
system.mem_ctrls.wrQLenPdf::7                       1                       # What write queue length does an incoming req see
system.mem_ctrls.wrQLenPdf::8                       1                       # What write queue length does an incoming req see
system.mem_ctrls.wrQLenPdf::9                       1                       # What write queue length does an incoming req see
system.mem_ctrls.wrQLenPdf::10                      1                       # What write queue length does an incoming req see
system.mem_ctrls.wrQLenPdf::11                      1                       # What write queue length does an incoming req see
system.mem_ctrls.wrQLenPdf::12                      1                       # What write queue length does an incoming req see
system.mem_ctrls.wrQLenPdf::13                      1                       # What write queue length does an incoming req see
system.mem_ctrls.wrQLenPdf::14                      1                       # What write queue length does an incoming req see
system.mem_ctrls.wrQLenPdf::15                   1269                       # What write queue length does an incoming req see
system.mem_ctrls.wrQLenPdf::16                   1305                       # What write queue length does an incoming req see
system.mem_ctrls.wrQLenPdf::17                   2007                       # What write queue length does an incoming req see
system.mem_ctrls.wrQLenPdf::18                   2007                       # What write queue length does an incoming req see
system.mem_ctrls.wrQLenPdf::19                   2007                       # What write queue length does an incoming req see
system.mem_ctrls.wrQLenPdf::20                   2007                       # What write queue length does an incoming req see
system.mem_ctrls.wrQLenPdf::21                   2007                       # What write queue length does an incoming req see
system.mem_ctrls.wrQLenPdf::22                   2007                       # What write queue length does an incoming req see
system.mem_ctrls.wrQLenPdf::23                   2007                       # What write queue length does an incoming req see
system.mem_ctrls.wrQLenPdf::24                   2007                       # What write queue length does an incoming req see
system.mem_ctrls.wrQLenPdf::25                   2007                       # What write queue length does an incoming req see
system.mem_ctrls.wrQLenPdf::26                   2007                       # What write queue length does an incoming req see
system.mem_ctrls.wrQLenPdf::27                   2007                       # What write queue length does an incoming req see
system.mem_ctrls.wrQLenPdf::28                   2007                       # What write queue length does an incoming req see
system.mem_ctrls.wrQLenPdf::29                   2007                       # What write queue length does an incoming req see
system.mem_ctrls.wrQLenPdf::30                   2007                       # What write queue length does an incoming req see
system.mem_ctrls.wrQLenPdf::31                   2006                       # What write queue length does an incoming req see
system.mem_ctrls.wrQLenPdf::32                   2006                       # What write queue length does an incoming req see
system.mem_ctrls.wrQLenPdf::33                      0                       # What write queue length does an incoming req see
system.mem_ctrls.wrQLenPdf::34                      0                       # What write queue length does an incoming req see
system.mem_ctrls.wrQLenPdf::35                      0                       # What write queue length does an incoming req see
system.mem_ctrls.wrQLenPdf::36                      0                       # What write queue length does an incoming req see
system.mem_ctrls.wrQLenPdf::37                      0                       # What write queue length does an incoming req see
system.mem_ctrls.wrQLenPdf::38                      0                       # What write queue length does an incoming req see
system.mem_ctrls.wrQLenPdf::39                      0                       # What write queue length does an incoming req see
system.mem_ctrls.wrQLenPdf::40                      0                       # What write queue length does an incoming req see
system.mem_ctrls.wrQLenPdf::41                      0                       # What write queue length does an incoming req see
system.mem_ctrls.wrQLenPdf::42                      0                       # What write queue length does an incoming req see
system.mem_ctrls.wrQLenPdf::43                      0                       # What write queue length does an incoming req see
system.mem_ctrls.wrQLenPdf::44                      0                       # What write queue length does an incoming req see
system.mem_ctrls.wrQLenPdf::45                      0                       # What write queue length does an incoming req see
system.mem_ctrls.wrQLenPdf::46                      0                       # What write queue length does an incoming req see
system.mem_ctrls.wrQLenPdf::47                      0                       # What write queue length does an incoming req see
system.mem_ctrls.wrQLenPdf::48                      0                       # What write queue length does an incoming req see
system.mem_ctrls.wrQLenPdf::49                      0                       # What write queue length does an incoming req see
system.mem_ctrls.wrQLenPdf::50                      0                       # What write queue length does an incoming req see
system.mem_ctrls.wrQLenPdf::51                      0                       # What write queue length does an incoming req see
system.mem_ctrls.wrQLenPdf::52                      0                       # What write queue length does an incoming req see
system.mem_ctrls.wrQLenPdf::53                      0                       # What write queue length does an incoming req see
system.mem_ctrls.wrQLenPdf::54                      0                       # What write queue length does an incoming req see
system.mem_ctrls.wrQLenPdf::55                      0                       # What write queue length does an incoming req see
system.mem_ctrls.wrQLenPdf::56                      0                       # What write queue length does an incoming req see
system.mem_ctrls.wrQLenPdf::57                      0                       # What write queue length does an incoming req see
system.mem_ctrls.wrQLenPdf::58                      0                       # What write queue length does an incoming req see
system.mem_ctrls.wrQLenPdf::59                      0                       # What write queue length does an incoming req see
system.mem_ctrls.wrQLenPdf::60                      0                       # What write queue length does an incoming req see
system.mem_ctrls.wrQLenPdf::61                      0                       # What write queue length does an incoming req see
system.mem_ctrls.wrQLenPdf::62                      0                       # What write queue length does an incoming req see
system.mem_ctrls.wrQLenPdf::63                      0                       # What write queue length does an incoming req see
system.mem_ctrls.bytesPerActivate::samples        14295                       # Bytes accessed per row activation
system.mem_ctrls.bytesPerActivate::mean    457.227282                       # Bytes accessed per row activation
system.mem_ctrls.bytesPerActivate::gmean   322.718008                       # Bytes accessed per row activation
system.mem_ctrls.bytesPerActivate::stdev   342.735364                       # Bytes accessed per row activation
system.mem_ctrls.bytesPerActivate::0-127         1718     12.02%     12.02% # Bytes accessed per row activation
system.mem_ctrls.bytesPerActivate::128-255         3005     21.02%     33.04% # Bytes accessed per row activation
system.mem_ctrls.bytesPerActivate::256-383         1941     13.58%     46.62% # Bytes accessed per row activation
system.mem_ctrls.bytesPerActivate::384-511         3284     22.97%     69.59% # Bytes accessed per row activation
system.mem_ctrls.bytesPerActivate::512-639          514      3.60%     73.19% # Bytes accessed per row activation
system.mem_ctrls.bytesPerActivate::640-767          242      1.69%     74.88% # Bytes accessed per row activation
system.mem_ctrls.bytesPerActivate::768-895          317      2.22%     77.10% # Bytes accessed per row activation
system.mem_ctrls.bytesPerActivate::896-1023          449      3.14%     80.24% # Bytes accessed per row activation
system.mem_ctrls.bytesPerActivate::1024-1151         2825     19.76%    100.00% # Bytes accessed per row activation
system.mem_ctrls.bytesPerActivate::total        14295                       # Bytes accessed per row activation
system.mem_ctrls.rdPerTurnAround::samples         2006                       # Reads before turning the bus around for writes
system.mem_ctrls.rdPerTurnAround::mean      33.976072                       # Reads before turning the bus around for writes
system.mem_ctrls.rdPerTurnAround::gmean     17.565604                       # Reads before turning the bus around for writes
system.mem_ctrls.rdPerTurnAround::stdev    665.609935                       # Reads before turning the bus around for writes
system.mem_ctrls.rdPerTurnAround::0-1023         2004     99.90%     99.90% # Reads before turning the bus around for writes
system.mem_ctrls.rdPerTurnAround::2048-3071            1      0.05%     99.95% # Reads before turning the bus around for writes
system.mem_ctrls.rdPerTurnAround::29696-30719            1      0.05%    100.00% # Reads before turning the bus around for writes
system.mem_ctrls.rdPerTurnAround::total          2006                       # Reads before turning the bus around for writes
system.mem_ctrls.wrPerTurnAround::samples         2006                       # Writes before turning the bus around for reads
system.mem_ctrls.wrPerTurnAround::mean      17.282154                       # Writes before turning the bus around for reads
system.mem_ctrls.wrPerTurnAround::gmean     17.255446                       # Writes before turning the bus around for reads
system.mem_ctrls.wrPerTurnAround::stdev      0.950207                       # Writes before turning the bus around for reads
system.mem_ctrls.wrPerTurnAround::16              702     35.00%     35.00% # Writes before turning the bus around for reads
system.mem_ctrls.wrPerTurnAround::17               36      1.79%     36.79% # Writes before turning the bus around for reads
system.mem_ctrls.wrPerTurnAround::18             1268     63.21%    100.00% # Writes before turning the bus around for reads
system.mem_ctrls.wrPerTurnAround::total          2006                       # Writes before turning the bus around for reads
system.mem_ctrls.masterReadBytes::.cpu.inst         4352                       # Per-master bytes read from memory
system.mem_ctrls.masterReadBytes::.cpu.data      4312832                       # Per-master bytes read from memory
system.mem_ctrls.masterWriteBytes::.writebacks      2218752                       # Per-master bytes write to memory
system.mem_ctrls.masterReadRate::.cpu.inst 108969.721703674993                       # Per-master bytes read from memory rate (Bytes/sec)
system.mem_ctrls.masterReadRate::.cpu.data 107988994.208341926336                       # Per-master bytes read from memory rate (Bytes/sec)
system.mem_ctrls.masterWriteRate::.writebacks 55555328.117985360324                       # Per-master bytes write to memory rate (Bytes/sec)
system.mem_ctrls.masterReadAccesses::.cpu.inst           68                       # Per-master read serviced memory accesses
system.mem_ctrls.masterReadAccesses::.cpu.data        67388                       # Per-master read serviced memory accesses
system.mem_ctrls.masterWriteAccesses::.writebacks        34699                       # Per-master write serviced memory accesses
system.mem_ctrls.masterReadTotalLat::.cpu.inst      2371500                       # Per-master read total memory access latency
system.mem_ctrls.masterReadTotalLat::.cpu.data   2531131500                       # Per-master read total memory access latency
system.mem_ctrls.masterWriteTotalLat::.writebacks 540119333250                       # Per-master write total memory access latency
system.mem_ctrls.masterReadAvgLat::.cpu.inst     34875.00                       # Per-master read average memory access latency
system.mem_ctrls.masterReadAvgLat::.cpu.data     37560.57                       # Per-master read average memory access latency
system.mem_ctrls.masterWriteAvgLat::.writebacks  15565847.24                       # Per-master write average memory access latency
system.mem_ctrls.totQLat                   1268703000                       # Total ticks spent queuing
system.mem_ctrls.totMemAccLat              2533503000                       # Total ticks spent from burst creation until serviced by the DRAM
system.mem_ctrls.totBusLat                  337280000                       # Total ticks spent in databus transfers
system.mem_ctrls.avgQLat                     18807.86                       # Average queueing delay per DRAM burst
system.mem_ctrls.avgBusLat                    5000.00                       # Average bus latency per DRAM burst
system.mem_ctrls.avgMemAccLat                37557.86                       # Average memory access latency per DRAM burst
system.mem_ctrls.avgRdBW                       108.10                       # Average DRAM read bandwidth in MiByte/s
system.mem_ctrls.avgWrBW                        55.56                       # Average achieved write bandwidth in MiByte/s
system.mem_ctrls.avgRdBWSys                    108.10                       # Average system read bandwidth in MiByte/s
system.mem_ctrls.avgWrBWSys                     55.61                       # Average system write bandwidth in MiByte/s
system.mem_ctrls.peakBW                      12800.00                       # Theoretical peak bandwidth in MiByte/s
system.mem_ctrls.busUtil                         1.28                       # Data bus utilization in percentage
system.mem_ctrls.busUtilRead                     0.84                       # Data bus utilization in percentage for reads
system.mem_ctrls.busUtilWrite                    0.43                       # Data bus utilization in percentage for writes
system.mem_ctrls.avgRdQLen                       1.00                       # Average read queue length when enqueuing
system.mem_ctrls.avgWrQLen                      13.93                       # Average write queue length when enqueuing
system.mem_ctrls.readRowHits                    56831                       # Number of row buffer hits during reads
system.mem_ctrls.writeRowHits                   31000                       # Number of row buffer hits during writes
system.mem_ctrls.readRowHitRate                 84.25                       # Row buffer hit rate for reads
system.mem_ctrls.writeRowHitRate                89.34                       # Row buffer hit rate for writes
system.mem_ctrls.avgGap                     390951.01                       # Average gap between requests
system.mem_ctrls.pageHitRate                    85.98                       # Row buffer hit rate, read and write combined
system.mem_ctrls_0.actEnergy                 50793960                       # Energy for activate commands per rank (pJ)
system.mem_ctrls_0.preEnergy                 26993835                       # Energy for precharge commands per rank (pJ)
system.mem_ctrls_0.readEnergy               241560480                       # Energy for read commands per rank (pJ)
system.mem_ctrls_0.writeEnergy               90681840                       # Energy for write commands per rank (pJ)
system.mem_ctrls_0.refreshEnergy         2109444480.000000                       # Energy for refresh commands per rank (pJ)
system.mem_ctrls_0.actBackEnergy           1270960920                       # Energy for active background per rank (pJ)
system.mem_ctrls_0.preBackEnergy            100132320                       # Energy for precharge background per rank (pJ)
system.mem_ctrls_0.actPowerDownEnergy      8860315410                       # Energy for active power-down per rank (pJ)
system.mem_ctrls_0.prePowerDownEnergy      1678239360                       # Energy for precharge power-down per rank (pJ)
system.mem_ctrls_0.selfRefreshEnergy       3392713200                       # Energy for self refresh per rank (pJ)
system.mem_ctrls_0.totalEnergy            17822312085                       # Total energy per rank (pJ)
system.mem_ctrls_0.averagePower            446.252847                       # Core power per rank (mW)
system.mem_ctrls_0.totalIdleTime          36888799750                       # Total Idle time Per DRAM Rank
system.mem_ctrls_0.memoryStateTime::IDLE    149528750                       # Time in different power states
system.mem_ctrls_0.memoryStateTime::REF     892320000                       # Time in different power states
system.mem_ctrls_0.memoryStateTime::SREF  13088298750                       # Time in different power states
system.mem_ctrls_0.memoryStateTime::PRE_PDN   4370532000                       # Time in different power states
system.mem_ctrls_0.memoryStateTime::ACT    2006887000                       # Time in different power states
system.mem_ctrls_0.memoryStateTime::ACT_PDN  19430167750                       # Time in different power states
system.mem_ctrls_1.actEnergy                 51279480                       # Energy for activate commands per rank (pJ)
system.mem_ctrls_1.preEnergy                 27255690                       # Energy for precharge commands per rank (pJ)
system.mem_ctrls_1.readEnergy               240111060                       # Energy for read commands per rank (pJ)
system.mem_ctrls_1.writeEnergy               90285120                       # Energy for write commands per rank (pJ)
system.mem_ctrls_1.refreshEnergy         2111903040.000000                       # Energy for refresh commands per rank (pJ)
system.mem_ctrls_1.actBackEnergy           1273081890                       # Energy for active background per rank (pJ)
system.mem_ctrls_1.preBackEnergy             98323200                       # Energy for precharge background per rank (pJ)
system.mem_ctrls_1.actPowerDownEnergy      8883711060                       # Energy for active power-down per rank (pJ)
system.mem_ctrls_1.prePowerDownEnergy      1668341760                       # Energy for precharge power-down per rank (pJ)
system.mem_ctrls_1.selfRefreshEnergy       3377216520                       # Energy for self refresh per rank (pJ)
system.mem_ctrls_1.totalEnergy            17821604730                       # Total energy per rank (pJ)
system.mem_ctrls_1.averagePower            446.235135                       # Core power per rank (mW)
system.mem_ctrls_1.totalIdleTime          36890494500                       # Total Idle time Per DRAM Rank
system.mem_ctrls_1.memoryStateTime::IDLE    144491500                       # Time in different power states
system.mem_ctrls_1.memoryStateTime::REF     893360000                       # Time in different power states
system.mem_ctrls_1.memoryStateTime::SREF  13063686250                       # Time in different power states
system.mem_ctrls_1.memoryStateTime::PRE_PDN   4344557000                       # Time in different power states
system.mem_ctrls_1.memoryStateTime::ACT    2009525250                       # Time in different power states
system.mem_ctrls_1.memoryStateTime::ACT_PDN  19482383500                       # Time in different power states
system.pwrStateResidencyTicks::UNDEFINED  39977466500                       # Cumulative time (in ticks) in various power states
system.cpu.branchPred.lookups                20393078                       # Number of BP lookups
system.cpu.branchPred.condPredicted          16403909                       # Number of conditional branches predicted
system.cpu.branchPred.condIncorrect            377954                       # Number of conditional branches incorrect
system.cpu.branchPred.BTBLookups             12541846                       # Number of BTB lookups
system.cpu.branchPred.BTBHits                12466075                       # Number of BTB hits
system.cpu.branchPred.BTBCorrect                    0                       # Number of correct BTB predictions (this stat may not work properly.
system.cpu.branchPred.BTBHitPct             99.395854                       # BTB Hit Percentage
system.cpu.branchPred.usedRAS                  450159                       # Number of times the RAS was used to get a target.
system.cpu.branchPred.RASInCorrect              13575                       # Number of incorrect RAS predictions.
system.cpu.branchPred.indirectLookups           53161                       # Number of indirect predictor lookups.
system.cpu.branchPred.indirectHits              49179                       # Number of indirect target hits.
system.cpu.branchPred.indirectMisses             3982                       # Number of indirect misses.
system.cpu.branchPredindirectMispredicted         1991                       # Number of mispredicted indirect branches.
system.cpu_voltage_domain.voltage                   1                       # Voltage in Volts
system.cpu_clk_domain.clock                       500                       # Clock period in ticks
system.cpu.dstage2_mmu.stage2_tlb.walker.pwrStateResidencyTicks::UNDEFINED  39977466500                       # Cumulative time (in ticks) in various power states
system.cpu.dstage2_mmu.stage2_tlb.walker.walks            0                       # Table walker walks requested
system.cpu.dstage2_mmu.stage2_tlb.walker.walkRequestOrigin_Requested::Data            0                       # Table walker requests started/completed, data/inst
system.cpu.dstage2_mmu.stage2_tlb.walker.walkRequestOrigin_Requested::Inst            0                       # Table walker requests started/completed, data/inst
system.cpu.dstage2_mmu.stage2_tlb.walker.walkRequestOrigin_Requested::total            0                       # Table walker requests started/completed, data/inst
system.cpu.dstage2_mmu.stage2_tlb.walker.walkRequestOrigin_Completed::Data            0                       # Table walker requests started/completed, data/inst
system.cpu.dstage2_mmu.stage2_tlb.walker.walkRequestOrigin_Completed::Inst            0                       # Table walker requests started/completed, data/inst
system.cpu.dstage2_mmu.stage2_tlb.walker.walkRequestOrigin_Completed::total            0                       # Table walker requests started/completed, data/inst
system.cpu.dstage2_mmu.stage2_tlb.walker.walkRequestOrigin::total            0                       # Table walker requests started/completed, data/inst
system.cpu.dstage2_mmu.stage2_tlb.inst_hits            0                       # ITB inst hits
system.cpu.dstage2_mmu.stage2_tlb.inst_misses            0                       # ITB inst misses
system.cpu.dstage2_mmu.stage2_tlb.read_hits            0                       # DTB read hits
system.cpu.dstage2_mmu.stage2_tlb.read_misses            0                       # DTB read misses
system.cpu.dstage2_mmu.stage2_tlb.write_hits            0                       # DTB write hits
system.cpu.dstage2_mmu.stage2_tlb.write_misses            0                       # DTB write misses
system.cpu.dstage2_mmu.stage2_tlb.flush_tlb            0                       # Number of times complete TLB was flushed
system.cpu.dstage2_mmu.stage2_tlb.flush_tlb_mva            0                       # Number of times TLB was flushed by MVA
system.cpu.dstage2_mmu.stage2_tlb.flush_tlb_mva_asid            0                       # Number of times TLB was flushed by MVA & ASID
system.cpu.dstage2_mmu.stage2_tlb.flush_tlb_asid            0                       # Number of times TLB was flushed by ASID
system.cpu.dstage2_mmu.stage2_tlb.flush_entries            0                       # Number of entries that have been flushed from TLB
system.cpu.dstage2_mmu.stage2_tlb.align_faults            0                       # Number of TLB faults due to alignment restrictions
system.cpu.dstage2_mmu.stage2_tlb.prefetch_faults            0                       # Number of TLB faults due to prefetch
system.cpu.dstage2_mmu.stage2_tlb.domain_faults            0                       # Number of TLB faults due to domain restrictions
system.cpu.dstage2_mmu.stage2_tlb.perms_faults            0                       # Number of TLB faults due to permissions restrictions
system.cpu.dstage2_mmu.stage2_tlb.read_accesses            0                       # DTB read accesses
system.cpu.dstage2_mmu.stage2_tlb.write_accesses            0                       # DTB write accesses
system.cpu.dstage2_mmu.stage2_tlb.inst_accesses            0                       # ITB inst accesses
system.cpu.dstage2_mmu.stage2_tlb.hits              0                       # DTB hits
system.cpu.dstage2_mmu.stage2_tlb.misses            0                       # DTB misses
system.cpu.dstage2_mmu.stage2_tlb.accesses            0                       # DTB accesses
system.cpu.dtb.walker.pwrStateResidencyTicks::UNDEFINED  39977466500                       # Cumulative time (in ticks) in various power states
system.cpu.dtb.walker.walks                         0                       # Table walker walks requested
system.cpu.dtb.walker.walkRequestOrigin_Requested::Data            0                       # Table walker requests started/completed, data/inst
system.cpu.dtb.walker.walkRequestOrigin_Requested::Inst            0                       # Table walker requests started/completed, data/inst
system.cpu.dtb.walker.walkRequestOrigin_Requested::total            0                       # Table walker requests started/completed, data/inst
system.cpu.dtb.walker.walkRequestOrigin_Completed::Data            0                       # Table walker requests started/completed, data/inst
system.cpu.dtb.walker.walkRequestOrigin_Completed::Inst            0                       # Table walker requests started/completed, data/inst
system.cpu.dtb.walker.walkRequestOrigin_Completed::total            0                       # Table walker requests started/completed, data/inst
system.cpu.dtb.walker.walkRequestOrigin::total            0                       # Table walker requests started/completed, data/inst
system.cpu.dtb.inst_hits                            0                       # ITB inst hits
system.cpu.dtb.inst_misses                          0                       # ITB inst misses
system.cpu.dtb.read_hits                            0                       # DTB read hits
system.cpu.dtb.read_misses                          0                       # DTB read misses
system.cpu.dtb.write_hits                           0                       # DTB write hits
system.cpu.dtb.write_misses                         0                       # DTB write misses
system.cpu.dtb.flush_tlb                            0                       # Number of times complete TLB was flushed
system.cpu.dtb.flush_tlb_mva                        0                       # Number of times TLB was flushed by MVA
system.cpu.dtb.flush_tlb_mva_asid                   0                       # Number of times TLB was flushed by MVA & ASID
system.cpu.dtb.flush_tlb_asid                       0                       # Number of times TLB was flushed by ASID
system.cpu.dtb.flush_entries                        0                       # Number of entries that have been flushed from TLB
system.cpu.dtb.align_faults                         0                       # Number of TLB faults due to alignment restrictions
system.cpu.dtb.prefetch_faults                      0                       # Number of TLB faults due to prefetch
system.cpu.dtb.domain_faults                        0                       # Number of TLB faults due to domain restrictions
system.cpu.dtb.perms_faults                         0                       # Number of TLB faults due to permissions restrictions
system.cpu.dtb.read_accesses                        0                       # DTB read accesses
system.cpu.dtb.write_accesses                       0                       # DTB write accesses
system.cpu.dtb.inst_accesses                        0                       # ITB inst accesses
system.cpu.dtb.hits                                 0                       # DTB hits
system.cpu.dtb.misses                               0                       # DTB misses
system.cpu.dtb.accesses                             0                       # DTB accesses
system.cpu.istage2_mmu.stage2_tlb.walker.pwrStateResidencyTicks::UNDEFINED  39977466500                       # Cumulative time (in ticks) in various power states
system.cpu.istage2_mmu.stage2_tlb.walker.walks            0                       # Table walker walks requested
system.cpu.istage2_mmu.stage2_tlb.walker.walkRequestOrigin_Requested::Data            0                       # Table walker requests started/completed, data/inst
system.cpu.istage2_mmu.stage2_tlb.walker.walkRequestOrigin_Requested::Inst            0                       # Table walker requests started/completed, data/inst
system.cpu.istage2_mmu.stage2_tlb.walker.walkRequestOrigin_Requested::total            0                       # Table walker requests started/completed, data/inst
system.cpu.istage2_mmu.stage2_tlb.walker.walkRequestOrigin_Completed::Data            0                       # Table walker requests started/completed, data/inst
system.cpu.istage2_mmu.stage2_tlb.walker.walkRequestOrigin_Completed::Inst            0                       # Table walker requests started/completed, data/inst
system.cpu.istage2_mmu.stage2_tlb.walker.walkRequestOrigin_Completed::total            0                       # Table walker requests started/completed, data/inst
system.cpu.istage2_mmu.stage2_tlb.walker.walkRequestOrigin::total            0                       # Table walker requests started/completed, data/inst
system.cpu.istage2_mmu.stage2_tlb.inst_hits            0                       # ITB inst hits
system.cpu.istage2_mmu.stage2_tlb.inst_misses            0                       # ITB inst misses
system.cpu.istage2_mmu.stage2_tlb.read_hits            0                       # DTB read hits
system.cpu.istage2_mmu.stage2_tlb.read_misses            0                       # DTB read misses
system.cpu.istage2_mmu.stage2_tlb.write_hits            0                       # DTB write hits
system.cpu.istage2_mmu.stage2_tlb.write_misses            0                       # DTB write misses
system.cpu.istage2_mmu.stage2_tlb.flush_tlb            0                       # Number of times complete TLB was flushed
system.cpu.istage2_mmu.stage2_tlb.flush_tlb_mva            0                       # Number of times TLB was flushed by MVA
system.cpu.istage2_mmu.stage2_tlb.flush_tlb_mva_asid            0                       # Number of times TLB was flushed by MVA & ASID
system.cpu.istage2_mmu.stage2_tlb.flush_tlb_asid            0                       # Number of times TLB was flushed by ASID
system.cpu.istage2_mmu.stage2_tlb.flush_entries            0                       # Number of entries that have been flushed from TLB
system.cpu.istage2_mmu.stage2_tlb.align_faults            0                       # Number of TLB faults due to alignment restrictions
system.cpu.istage2_mmu.stage2_tlb.prefetch_faults            0                       # Number of TLB faults due to prefetch
system.cpu.istage2_mmu.stage2_tlb.domain_faults            0                       # Number of TLB faults due to domain restrictions
system.cpu.istage2_mmu.stage2_tlb.perms_faults            0                       # Number of TLB faults due to permissions restrictions
system.cpu.istage2_mmu.stage2_tlb.read_accesses            0                       # DTB read accesses
system.cpu.istage2_mmu.stage2_tlb.write_accesses            0                       # DTB write accesses
system.cpu.istage2_mmu.stage2_tlb.inst_accesses            0                       # ITB inst accesses
system.cpu.istage2_mmu.stage2_tlb.hits              0                       # DTB hits
system.cpu.istage2_mmu.stage2_tlb.misses            0                       # DTB misses
system.cpu.istage2_mmu.stage2_tlb.accesses            0                       # DTB accesses
system.cpu.itb.walker.pwrStateResidencyTicks::UNDEFINED  39977466500                       # Cumulative time (in ticks) in various power states
system.cpu.itb.walker.walks                         0                       # Table walker walks requested
system.cpu.itb.walker.walkRequestOrigin_Requested::Data            0                       # Table walker requests started/completed, data/inst
system.cpu.itb.walker.walkRequestOrigin_Requested::Inst            0                       # Table walker requests started/completed, data/inst
system.cpu.itb.walker.walkRequestOrigin_Requested::total            0                       # Table walker requests started/completed, data/inst
system.cpu.itb.walker.walkRequestOrigin_Completed::Data            0                       # Table walker requests started/completed, data/inst
system.cpu.itb.walker.walkRequestOrigin_Completed::Inst            0                       # Table walker requests started/completed, data/inst
system.cpu.itb.walker.walkRequestOrigin_Completed::total            0                       # Table walker requests started/completed, data/inst
system.cpu.itb.walker.walkRequestOrigin::total            0                       # Table walker requests started/completed, data/inst
system.cpu.itb.inst_hits                            0                       # ITB inst hits
system.cpu.itb.inst_misses                          0                       # ITB inst misses
system.cpu.itb.read_hits                            0                       # DTB read hits
system.cpu.itb.read_misses                          0                       # DTB read misses
system.cpu.itb.write_hits                           0                       # DTB write hits
system.cpu.itb.write_misses                         0                       # DTB write misses
system.cpu.itb.flush_tlb                            0                       # Number of times complete TLB was flushed
system.cpu.itb.flush_tlb_mva                        0                       # Number of times TLB was flushed by MVA
system.cpu.itb.flush_tlb_mva_asid                   0                       # Number of times TLB was flushed by MVA & ASID
system.cpu.itb.flush_tlb_asid                       0                       # Number of times TLB was flushed by ASID
system.cpu.itb.flush_entries                        0                       # Number of entries that have been flushed from TLB
system.cpu.itb.align_faults                         0                       # Number of TLB faults due to alignment restrictions
system.cpu.itb.prefetch_faults                      0                       # Number of TLB faults due to prefetch
system.cpu.itb.domain_faults                        0                       # Number of TLB faults due to domain restrictions
system.cpu.itb.perms_faults                         0                       # Number of TLB faults due to permissions restrictions
system.cpu.itb.read_accesses                        0                       # DTB read accesses
system.cpu.itb.write_accesses                       0                       # DTB write accesses
system.cpu.itb.inst_accesses                        0                       # ITB inst accesses
system.cpu.itb.hits                                 0                       # DTB hits
system.cpu.itb.misses                               0                       # DTB misses
system.cpu.itb.accesses                             0                       # DTB accesses
system.cpu.workload.numSyscalls                     6                       # Number of system calls
system.cpu.pwrStateResidencyTicks::ON     39977466500                       # Cumulative time (in ticks) in various power states
system.cpu.numCycles                         79875399                       # number of cpu cycles simulated
system.cpu.numWorkItemsStarted                      0                       # number of work items this cpu started
system.cpu.numWorkItemsCompleted                    0                       # number of work items this cpu completed
system.cpu.fetch.icacheStallCycles           35022876                       # Number of cycles fetch is stalled on an Icache miss
system.cpu.fetch.Insts                       98198988                       # Number of instructions fetch has processed
system.cpu.fetch.Branches                    20393078                       # Number of branches that fetch encountered
system.cpu.fetch.predictedBranches           12965413                       # Number of branches that fetch has predicted taken
system.cpu.fetch.Cycles                      44467873                       # Number of cycles fetch has run and was not squashing or blocked
system.cpu.fetch.SquashCycles                  757518                       # Number of cycles fetch has spent squashing
system.cpu.fetch.MiscStallCycles                   26                       # Number of cycles fetch has spent waiting on interrupts, or bad addresses, or out of MSHRs
system.cpu.fetch.PendingTrapStallCycles           524                       # Number of stall cycles due to pending traps
system.cpu.fetch.CacheLines                  34791968                       # Number of cache lines fetched
system.cpu.fetch.IcacheSquashes                148466                       # Number of outstanding Icache misses that were squashed
system.cpu.fetch.rateDist::samples           79870058                       # Number of instructions fetched each cycle (Total)
system.cpu.fetch.rateDist::mean              1.354152                       # Number of instructions fetched each cycle (Total)
system.cpu.fetch.rateDist::stdev             1.785064                       # Number of instructions fetched each cycle (Total)
system.cpu.fetch.rateDist::underflows               0      0.00%      0.00% # Number of instructions fetched each cycle (Total)
system.cpu.fetch.rateDist::0                 45353023     56.78%     56.78% # Number of instructions fetched each cycle (Total)
system.cpu.fetch.rateDist::1                  5718796      7.16%     63.94% # Number of instructions fetched each cycle (Total)
system.cpu.fetch.rateDist::2                  6299442      7.89%     71.83% # Number of instructions fetched each cycle (Total)
system.cpu.fetch.rateDist::3                  4571858      5.72%     77.55% # Number of instructions fetched each cycle (Total)
system.cpu.fetch.rateDist::4                 14207202     17.79%     95.34% # Number of instructions fetched each cycle (Total)
system.cpu.fetch.rateDist::5                  3353267      4.20%     99.54% # Number of instructions fetched each cycle (Total)
system.cpu.fetch.rateDist::6                   178678      0.22%     99.76% # Number of instructions fetched each cycle (Total)
system.cpu.fetch.rateDist::7                    46608      0.06%     99.82% # Number of instructions fetched each cycle (Total)
system.cpu.fetch.rateDist::8                   141184      0.18%    100.00% # Number of instructions fetched each cycle (Total)
system.cpu.fetch.rateDist::overflows                0      0.00%    100.00% # Number of instructions fetched each cycle (Total)
system.cpu.fetch.rateDist::min_value                0                       # Number of instructions fetched each cycle (Total)
system.cpu.fetch.rateDist::max_value                8                       # Number of instructions fetched each cycle (Total)
system.cpu.fetch.rateDist::total             79870058                       # Number of instructions fetched each cycle (Total)
system.cpu.fetch.branchRate                  0.255311                       # Number of branch fetches per cycle
system.cpu.fetch.rate                        1.229402                       # Number of inst fetches per cycle
system.cpu.decode.IdleCycles                 33725790                       # Number of cycles decode is idle
system.cpu.decode.BlockedCycles              12067110                       # Number of cycles decode is blocked
system.cpu.decode.RunCycles                  33270916                       # Number of cycles decode is running
system.cpu.decode.UnblockCycles                429501                       # Number of cycles decode is unblocking
system.cpu.decode.SquashCycles                 376741                       # Number of cycles decode is squashing
system.cpu.decode.BranchResolved             12320001                       # Number of times decode resolved a branch
system.cpu.decode.BranchMispred                  2032                       # Number of times decode detected a branch misprediction
system.cpu.decode.DecodedInsts              105927300                       # Number of instructions handled by decode
system.cpu.decode.SquashedInsts               1399775                       # Number of squashed instructions handled by decode
system.cpu.rename.SquashCycles                 376741                       # Number of cycles rename is squashing
system.cpu.rename.IdleCycles                 34462610                       # Number of cycles rename is idle
system.cpu.rename.BlockCycles                 5231352                       # Number of cycles rename is blocking
system.cpu.rename.serializeStallCycles         158109                       # count of cycles rename stalled for serializing inst
system.cpu.rename.RunCycles                  32963577                       # Number of cycles rename is running
system.cpu.rename.UnblockCycles               6677669                       # Number of cycles rename is unblocking
system.cpu.rename.RenamedInsts              104944692                       # Number of instructions processed by rename
system.cpu.rename.SquashedInsts                358832                       # Number of squashed instructions processed by rename
system.cpu.rename.ROBFullEvents                118439                       # Number of times rename has blocked due to ROB full
system.cpu.rename.IQFullEvents                  58015                       # Number of times rename has blocked due to IQ full
system.cpu.rename.LQFullEvents                   8485                       # Number of times rename has blocked due to LQ full
system.cpu.rename.SQFullEvents                6340211                       # Number of times rename has blocked due to SQ full
system.cpu.rename.FullRegisterEvents             2662                       # Number of times there has been no free registers
system.cpu.rename.RenamedOperands           114105882                       # Number of destination operands rename has renamed
system.cpu.rename.RenameLookups             469915888                       # Number of register rename lookups that rename has made
system.cpu.rename.int_rename_lookups        106784044                       # Number of integer rename lookups
system.cpu.rename.CommittedMaps             104969990                       # Number of HB maps that are committed
system.cpu.rename.UndoneMaps                  9135894                       # Number of HB maps that are undone due to squashing
system.cpu.rename.serializingInsts               7792                       # count of serializing insts renamed
system.cpu.rename.tempSerializingInsts           7792                       # count of temporary serializing insts renamed
system.cpu.rename.skidInsts                   1383862                       # count of insts added to the skid buffer
system.cpu.memDep0.insertedLoads             36170890                       # Number of loads inserted to the mem dependence unit.
system.cpu.memDep0.insertedStores             6977434                       # Number of stores inserted to the mem dependence unit.
system.cpu.memDep0.conflictingLoads           4429986                       # Number of conflicting loads.
system.cpu.memDep0.conflictingStores           114407                       # Number of conflicting stores.
system.cpu.iq.iqInstsAdded                  104107849                       # Number of instructions added to the IQ (excludes non-spec)
system.cpu.iq.iqNonSpecInstsAdded               15541                       # Number of non-speculative instructions added to the IQ
system.cpu.iq.iqInstsIssued                 100427509                       # Number of instructions issued
system.cpu.iq.iqSquashedInstsIssued            160446                       # Number of squashed instructions issued
system.cpu.iq.iqSquashedInstsExamined         7449427                       # Number of squashed instructions iterated over during squash; mainly for profiling
system.cpu.iq.iqSquashedOperandsExamined     22365868                       # Number of squashed operands that are examined and possibly removed from graph
system.cpu.iq.iqSquashedNonSpecRemoved             30                       # Number of squashed non-spec instructions that were removed
system.cpu.iq.issued_per_cycle::samples      79870058                       # Number of insts issued each cycle
system.cpu.iq.issued_per_cycle::mean         1.257386                       # Number of insts issued each cycle
system.cpu.iq.issued_per_cycle::stdev        0.960875                       # Number of insts issued each cycle
system.cpu.iq.issued_per_cycle::underflows            0      0.00%      0.00% # Number of insts issued each cycle
system.cpu.iq.issued_per_cycle::0            21416170     26.81%     26.81% # Number of insts issued each cycle
system.cpu.iq.issued_per_cycle::1            23918692     29.95%     56.76% # Number of insts issued each cycle
system.cpu.iq.issued_per_cycle::2            27478636     34.40%     91.16% # Number of insts issued each cycle
system.cpu.iq.issued_per_cycle::3             6676359      8.36%     99.52% # Number of insts issued each cycle
system.cpu.iq.issued_per_cycle::4              378537      0.47%    100.00% # Number of insts issued each cycle
system.cpu.iq.issued_per_cycle::5                1664      0.00%    100.00% # Number of insts issued each cycle
system.cpu.iq.issued_per_cycle::6                   0      0.00%    100.00% # Number of insts issued each cycle
system.cpu.iq.issued_per_cycle::7                   0      0.00%    100.00% # Number of insts issued each cycle
system.cpu.iq.issued_per_cycle::8                   0      0.00%    100.00% # Number of insts issued each cycle
system.cpu.iq.issued_per_cycle::overflows            0      0.00%    100.00% # Number of insts issued each cycle
system.cpu.iq.issued_per_cycle::min_value            0                       # Number of insts issued each cycle
system.cpu.iq.issued_per_cycle::max_value            5                       # Number of insts issued each cycle
system.cpu.iq.issued_per_cycle::total        79870058                       # Number of insts issued each cycle
system.cpu.iq.fu_full::No_OpClass                   0      0.00%      0.00% # attempts to use FU when none available
system.cpu.iq.fu_full::IntAlu                 9382698     33.03%     33.03% # attempts to use FU when none available
system.cpu.iq.fu_full::IntMult                      0      0.00%     33.03% # attempts to use FU when none available
system.cpu.iq.fu_full::IntDiv                       0      0.00%     33.03% # attempts to use FU when none available
system.cpu.iq.fu_full::FloatAdd                     0      0.00%     33.03% # attempts to use FU when none available
system.cpu.iq.fu_full::FloatCmp                     0      0.00%     33.03% # attempts to use FU when none available
system.cpu.iq.fu_full::FloatCvt                     0      0.00%     33.03% # attempts to use FU when none available
system.cpu.iq.fu_full::FloatMult                    0      0.00%     33.03% # attempts to use FU when none available
system.cpu.iq.fu_full::FloatMultAcc                 0      0.00%     33.03% # attempts to use FU when none available
system.cpu.iq.fu_full::FloatDiv                     0      0.00%     33.03% # attempts to use FU when none available
system.cpu.iq.fu_full::FloatMisc                    0      0.00%     33.03% # attempts to use FU when none available
system.cpu.iq.fu_full::FloatSqrt                    0      0.00%     33.03% # attempts to use FU when none available
system.cpu.iq.fu_full::SimdAdd                      0      0.00%     33.03% # attempts to use FU when none available
system.cpu.iq.fu_full::SimdAddAcc                   0      0.00%     33.03% # attempts to use FU when none available
system.cpu.iq.fu_full::SimdAlu                      0      0.00%     33.03% # attempts to use FU when none available
system.cpu.iq.fu_full::SimdCmp                      0      0.00%     33.03% # attempts to use FU when none available
system.cpu.iq.fu_full::SimdCvt                      0      0.00%     33.03% # attempts to use FU when none available
system.cpu.iq.fu_full::SimdMisc                     0      0.00%     33.03% # attempts to use FU when none available
system.cpu.iq.fu_full::SimdMult                     0      0.00%     33.03% # attempts to use FU when none available
system.cpu.iq.fu_full::SimdMultAcc                  0      0.00%     33.03% # attempts to use FU when none available
system.cpu.iq.fu_full::SimdShift                    0      0.00%     33.03% # attempts to use FU when none available
system.cpu.iq.fu_full::SimdShiftAcc                 0      0.00%     33.03% # attempts to use FU when none available
system.cpu.iq.fu_full::SimdSqrt                     0      0.00%     33.03% # attempts to use FU when none available
system.cpu.iq.fu_full::SimdFloatAdd                 0      0.00%     33.03% # attempts to use FU when none available
system.cpu.iq.fu_full::SimdFloatAlu                 0      0.00%     33.03% # attempts to use FU when none available
system.cpu.iq.fu_full::SimdFloatCmp                 0      0.00%     33.03% # attempts to use FU when none available
system.cpu.iq.fu_full::SimdFloatCvt                 0      0.00%     33.03% # attempts to use FU when none available
system.cpu.iq.fu_full::SimdFloatDiv                 0      0.00%     33.03% # attempts to use FU when none available
system.cpu.iq.fu_full::SimdFloatMisc                0      0.00%     33.03% # attempts to use FU when none available
system.cpu.iq.fu_full::SimdFloatMult                0      0.00%     33.03% # attempts to use FU when none available
system.cpu.iq.fu_full::SimdFloatMultAcc             0      0.00%     33.03% # attempts to use FU when none available
system.cpu.iq.fu_full::SimdFloatSqrt                0      0.00%     33.03% # attempts to use FU when none available
system.cpu.iq.fu_full::MemRead               17839450     62.80%     95.83% # attempts to use FU when none available
system.cpu.iq.fu_full::MemWrite               1185444      4.17%    100.00% # attempts to use FU when none available
system.cpu.iq.fu_full::FloatMemRead                 0      0.00%    100.00% # attempts to use FU when none available
system.cpu.iq.fu_full::FloatMemWrite                0      0.00%    100.00% # attempts to use FU when none available
system.cpu.iq.fu_full::IprAccess                    0      0.00%    100.00% # attempts to use FU when none available
system.cpu.iq.fu_full::InstPrefetch                 0      0.00%    100.00% # attempts to use FU when none available
system.cpu.iq.FU_type_0::No_OpClass                36      0.00%      0.00% # Type of FU issued
system.cpu.iq.FU_type_0::IntAlu              58258536     58.01%     58.01% # Type of FU issued
system.cpu.iq.FU_type_0::IntMult                 5879      0.01%     58.02% # Type of FU issued
system.cpu.iq.FU_type_0::IntDiv                     0      0.00%     58.02% # Type of FU issued
system.cpu.iq.FU_type_0::FloatAdd                   0      0.00%     58.02% # Type of FU issued
system.cpu.iq.FU_type_0::FloatCmp                   0      0.00%     58.02% # Type of FU issued
system.cpu.iq.FU_type_0::FloatCvt                   0      0.00%     58.02% # Type of FU issued
system.cpu.iq.FU_type_0::FloatMult                  0      0.00%     58.02% # Type of FU issued
system.cpu.iq.FU_type_0::FloatMultAcc               0      0.00%     58.02% # Type of FU issued
system.cpu.iq.FU_type_0::FloatDiv                   0      0.00%     58.02% # Type of FU issued
system.cpu.iq.FU_type_0::FloatMisc                  0      0.00%     58.02% # Type of FU issued
system.cpu.iq.FU_type_0::FloatSqrt                  0      0.00%     58.02% # Type of FU issued
system.cpu.iq.FU_type_0::SimdAdd                    0      0.00%     58.02% # Type of FU issued
system.cpu.iq.FU_type_0::SimdAddAcc                 0      0.00%     58.02% # Type of FU issued
system.cpu.iq.FU_type_0::SimdAlu                    0      0.00%     58.02% # Type of FU issued
system.cpu.iq.FU_type_0::SimdCmp                    0      0.00%     58.02% # Type of FU issued
system.cpu.iq.FU_type_0::SimdCvt                    0      0.00%     58.02% # Type of FU issued
system.cpu.iq.FU_type_0::SimdMisc                   0      0.00%     58.02% # Type of FU issued
system.cpu.iq.FU_type_0::SimdMult                   0      0.00%     58.02% # Type of FU issued
system.cpu.iq.FU_type_0::SimdMultAcc                0      0.00%     58.02% # Type of FU issued
system.cpu.iq.FU_type_0::SimdShift                  0      0.00%     58.02% # Type of FU issued
system.cpu.iq.FU_type_0::SimdShiftAcc               0      0.00%     58.02% # Type of FU issued
system.cpu.iq.FU_type_0::SimdSqrt                   0      0.00%     58.02% # Type of FU issued
system.cpu.iq.FU_type_0::SimdFloatAdd               0      0.00%     58.02% # Type of FU issued
system.cpu.iq.FU_type_0::SimdFloatAlu               0      0.00%     58.02% # Type of FU issued
system.cpu.iq.FU_type_0::SimdFloatCmp               0      0.00%     58.02% # Type of FU issued
system.cpu.iq.FU_type_0::SimdFloatCvt               0      0.00%     58.02% # Type of FU issued
system.cpu.iq.FU_type_0::SimdFloatDiv               0      0.00%     58.02% # Type of FU issued
system.cpu.iq.FU_type_0::SimdFloatMisc              0      0.00%     58.02% # Type of FU issued
system.cpu.iq.FU_type_0::SimdFloatMult              0      0.00%     58.02% # Type of FU issued
system.cpu.iq.FU_type_0::SimdFloatMultAcc            0      0.00%     58.02% # Type of FU issued
system.cpu.iq.FU_type_0::SimdFloatSqrt              0      0.00%     58.02% # Type of FU issued
system.cpu.iq.FU_type_0::MemRead             35507317     35.36%     93.37% # Type of FU issued
system.cpu.iq.FU_type_0::MemWrite             6655741      6.63%    100.00% # Type of FU issued
system.cpu.iq.FU_type_0::FloatMemRead               0      0.00%    100.00% # Type of FU issued
system.cpu.iq.FU_type_0::FloatMemWrite              0      0.00%    100.00% # Type of FU issued
system.cpu.iq.FU_type_0::IprAccess                  0      0.00%    100.00% # Type of FU issued
system.cpu.iq.FU_type_0::InstPrefetch               0      0.00%    100.00% # Type of FU issued
system.cpu.iq.FU_type_0::total              100427509                       # Type of FU issued
system.cpu.iq.rate                           1.257302                       # Inst issue rate
system.cpu.iq.fu_busy_cnt                    28407592                       # FU busy when requested
system.cpu.iq.fu_busy_rate                   0.282867                       # FU busy rate (busy events/executed inst)
system.cpu.iq.int_inst_queue_reads          309293114                       # Number of integer instruction queue reads
system.cpu.iq.int_inst_queue_writes         111573685                       # Number of integer instruction queue writes
system.cpu.iq.int_inst_queue_wakeup_accesses     99288497                       # Number of integer instruction queue wakeup accesses
system.cpu.iq.fp_inst_queue_reads                   0                       # Number of floating instruction queue reads
system.cpu.iq.fp_inst_queue_writes                  0                       # Number of floating instruction queue writes
system.cpu.iq.fp_inst_queue_wakeup_accesses            0                       # Number of floating instruction queue wakeup accesses
system.cpu.iq.vec_inst_queue_reads                  0                       # Number of vector instruction queue reads
system.cpu.iq.vec_inst_queue_writes                 0                       # Number of vector instruction queue writes
system.cpu.iq.vec_inst_queue_wakeup_accesses            0                       # Number of vector instruction queue wakeup accesses
system.cpu.iq.int_alu_accesses              128835065                       # Number of integer alu accesses
system.cpu.iq.fp_alu_accesses                       0                       # Number of floating point alu accesses
system.cpu.iq.vec_alu_accesses                      0                       # Number of vector alu accesses
system.cpu.iew.lsq.thread0.forwLoads          5789515                       # Number of loads that had data forwarded from stores
system.cpu.iew.lsq.thread0.invAddrLoads             0                       # Number of loads ignored due to an invalid address
system.cpu.iew.lsq.thread0.squashedLoads      2844833                       # Number of loads squashed
system.cpu.iew.lsq.thread0.ignoredResponses           55                       # Number of memory responses ignored because the instruction is squashed
system.cpu.iew.lsq.thread0.memOrderViolation          868                       # Number of memory ordering violations
system.cpu.iew.lsq.thread0.squashedStores       484792                       # Number of stores squashed
system.cpu.iew.lsq.thread0.invAddrSwpfs             0                       # Number of software prefetches ignored due to an invalid address
system.cpu.iew.lsq.thread0.blockedLoads             0                       # Number of blocked loads due to partial load-store forwarding
system.cpu.iew.lsq.thread0.rescheduledLoads        81305                       # Number of loads that were rescheduled
system.cpu.iew.lsq.thread0.cacheBlocked             0                       # Number of times an access to memory failed due to the cache being blocked
system.cpu.iew.iewIdleCycles                        0                       # Number of cycles IEW is idle
system.cpu.iew.iewSquashCycles                 376741                       # Number of cycles IEW is squashing
system.cpu.iew.iewBlockCycles                 5038033                       # Number of cycles IEW is blocking
system.cpu.iew.iewUnblockCycles                 31122                       # Number of cycles IEW is unblocking
system.cpu.iew.iewDispatchedInsts           104123390                       # Number of instructions dispatched to IQ
system.cpu.iew.iewDispSquashedInsts                 0                       # Number of squashed instructions skipped by dispatch
system.cpu.iew.iewDispLoadInsts              36170890                       # Number of dispatched load instructions
system.cpu.iew.iewDispStoreInsts              6977434                       # Number of dispatched store instructions
system.cpu.iew.iewDispNonSpecInsts               7789                       # Number of dispatched non-speculative instructions
system.cpu.iew.iewIQFullEvents                      0                       # Number of times the IQ has become full, causing a stall
system.cpu.iew.iewLSQFullEvents                   171                       # Number of times the LSQ has become full, causing a stall
system.cpu.iew.memOrderViolationEvents            868                       # Number of memory order violations
system.cpu.iew.predictedTakenIncorrect         223641                       # Number of branches that were predicted taken incorrectly
system.cpu.iew.predictedNotTakenIncorrect       230647                       # Number of branches that were predicted not taken incorrectly
system.cpu.iew.branchMispredicts               454288                       # Number of branch mispredicts detected at execute
system.cpu.iew.iewExecutedInsts              99737328                       # Number of executed instructions
system.cpu.iew.iewExecLoadInsts              35140288                       # Number of load instructions executed
system.cpu.iew.iewExecSquashedInsts            690181                       # Number of squashed instructions skipped in execute
system.cpu.iew.exec_swp                             0                       # number of swp insts executed
system.cpu.iew.exec_nop                             0                       # number of nop insts executed
system.cpu.iew.exec_refs                     41651459                       # number of memory reference insts executed
system.cpu.iew.exec_branches                 18915237                       # Number of branches executed
system.cpu.iew.exec_stores                    6511171                       # Number of stores executed
system.cpu.iew.exec_rate                     1.248661                       # Inst execution rate
system.cpu.iew.wb_sent                       99374212                       # cumulative count of insts sent to commit
system.cpu.iew.wb_count                      99288497                       # cumulative count of insts written-back
system.cpu.iew.wb_producers                  66203469                       # num instructions producing a value
system.cpu.iew.wb_consumers                  92229936                       # num instructions consuming a value
system.cpu.iew.wb_rate                       1.243042                       # insts written-back per cycle
system.cpu.iew.wb_fanout                     0.717809                       # average fanout of values written-back
system.cpu.commit.commitSquashedInsts         6941347                       # The number of squashed insts skipped by commit
system.cpu.commit.commitNonSpecStalls           15511                       # The number of times commit has been forced to stall to communicate backwards
system.cpu.commit.branchMispredicts            375963                       # The number of times a branch was mispredicted
system.cpu.commit.committed_per_cycle::samples     78829894                       # Number of insts commited each cycle
system.cpu.commit.committed_per_cycle::mean     1.226362                       # Number of insts commited each cycle
system.cpu.commit.committed_per_cycle::stdev     1.679467                       # Number of insts commited each cycle
[...]
system.l2.demand_accesses::total                67892                       # number of demand (read+write) accesses
system.l2.overall_accesses::.cpu.inst             120                       # number of overall (read+write) accesses
system.l2.overall_accesses::.cpu.data           67772                       # number of overall (read+write) accesses
system.l2.overall_accesses::total               67892                       # number of overall (read+write) accesses
system.l2.ReadExReq_miss_rate::.cpu.data     0.998814                       # miss rate for ReadExReq accesses
system.l2.ReadExReq_miss_rate::total         0.998814                       # miss rate for ReadExReq accesses
system.l2.ReadCleanReq_miss_rate::.cpu.inst     0.900000                       # miss rate for ReadCleanReq accesses
system.l2.ReadCleanReq_miss_rate::total      0.900000                       # miss rate for ReadCleanReq accesses
system.l2.ReadSharedReq_miss_rate::.cpu.data     0.990266                       # miss rate for ReadSharedReq accesses
system.l2.ReadSharedReq_miss_rate::total     0.990266                       # miss rate for ReadSharedReq accesses
system.l2.demand_miss_rate::.cpu.inst        0.900000                       # miss rate for demand accesses
system.l2.demand_miss_rate::.cpu.data        0.994732                       # miss rate for demand accesses
system.l2.demand_miss_rate::total            0.994565                       # miss rate for demand accesses
system.l2.overall_miss_rate::.cpu.inst       0.900000                       # miss rate for overall accesses
system.l2.overall_miss_rate::.cpu.data       0.994732                       # miss rate for overall accesses
system.l2.overall_miss_rate::total           0.994565                       # miss rate for overall accesses
system.l2.ReadExReq_avg_miss_latency::.cpu.data 92311.897424                       # average ReadExReq miss latency
system.l2.ReadExReq_avg_miss_latency::total 92311.897424                       # average ReadExReq miss latency
system.l2.ReadCleanReq_avg_miss_latency::.cpu.inst 88291.666667                       # average ReadCleanReq miss latency
system.l2.ReadCleanReq_avg_miss_latency::total 88291.666667                       # average ReadCleanReq miss latency
system.l2.ReadSharedReq_avg_miss_latency::.cpu.data 84266.398302                       # average ReadSharedReq miss latency
system.l2.ReadSharedReq_avg_miss_latency::total 84266.398302                       # average ReadSharedReq miss latency
system.l2.demand_avg_miss_latency::.cpu.inst 88291.666667                       # average overall miss latency
system.l2.demand_avg_miss_latency::.cpu.data 88487.436031                       # average overall miss latency
system.l2.demand_avg_miss_latency::total 88487.122906                       # average overall miss latency
system.l2.overall_avg_miss_latency::.cpu.inst 88291.666667                       # average overall miss latency
system.l2.overall_avg_miss_latency::.cpu.data 88487.436031                       # average overall miss latency
system.l2.overall_avg_miss_latency::total 88487.122906                       # average overall miss latency
system.l2.blocked_cycles::no_mshrs                  0                       # number of cycles access was blocked
system.l2.blocked_cycles::no_targets                0                       # number of cycles access was blocked
system.l2.blocked::no_mshrs                         0                       # number of cycles access was blocked
system.l2.blocked::no_targets                       0                       # number of cycles access was blocked
system.l2.avg_blocked_cycles::no_mshrs            nan                       # average number of cycles each access was blocked
system.l2.avg_blocked_cycles::no_targets          nan                       # average number of cycles each access was blocked
system.l2.writebacks::.writebacks               34783                       # number of writebacks
system.l2.writebacks::total                     34783                       # number of writebacks
system.l2.ReadSharedReq_mshr_hits::.cpu.data            1                       # number of ReadSharedReq MSHR hits
system.l2.ReadSharedReq_mshr_hits::total            1                       # number of ReadSharedReq MSHR hits
system.l2.demand_mshr_hits::.cpu.data               1                       # number of demand (read+write) MSHR hits
system.l2.demand_mshr_hits::total                   1                       # number of demand (read+write) MSHR hits
system.l2.overall_mshr_hits::.cpu.data              1                       # number of overall MSHR hits
system.l2.overall_mshr_hits::total                  1                       # number of overall MSHR hits
system.l2.CleanEvict_mshr_misses::.writebacks            3                       # number of CleanEvict MSHR misses
system.l2.CleanEvict_mshr_misses::total             3                       # number of CleanEvict MSHR misses
system.l2.ReadExReq_mshr_misses::.cpu.data        35369                       # number of ReadExReq MSHR misses
system.l2.ReadExReq_mshr_misses::total          35369                       # number of ReadExReq MSHR misses
system.l2.ReadCleanReq_mshr_misses::.cpu.inst          108                       # number of ReadCleanReq MSHR misses
system.l2.ReadCleanReq_mshr_misses::total          108                       # number of ReadCleanReq MSHR misses
system.l2.ReadSharedReq_mshr_misses::.cpu.data        32045                       # number of ReadSharedReq MSHR misses
system.l2.ReadSharedReq_mshr_misses::total        32045                       # number of ReadSharedReq MSHR misses
system.l2.demand_mshr_misses::.cpu.inst           108                       # number of demand (read+write) MSHR misses
system.l2.demand_mshr_misses::.cpu.data         67414                       # number of demand (read+write) MSHR misses
system.l2.demand_mshr_misses::total             67522                       # number of demand (read+write) MSHR misses
system.l2.overall_mshr_misses::.cpu.inst          108                       # number of overall MSHR misses
system.l2.overall_mshr_misses::.cpu.data        67414                       # number of overall MSHR misses
system.l2.overall_mshr_misses::total            67522                       # number of overall MSHR misses
system.l2.ReadExReq_mshr_miss_latency::.cpu.data   2911289500                       # number of ReadExReq MSHR miss cycles
system.l2.ReadExReq_mshr_miss_latency::total   2911289500                       # number of ReadExReq MSHR miss cycles
system.l2.ReadCleanReq_mshr_miss_latency::.cpu.inst      8445500                       # number of ReadCleanReq MSHR miss cycles
system.l2.ReadCleanReq_mshr_miss_latency::total      8445500                       # number of ReadCleanReq MSHR miss cycles
system.l2.ReadSharedReq_mshr_miss_latency::.cpu.data   2379879500                       # number of ReadSharedReq MSHR miss cycles
system.l2.ReadSharedReq_mshr_miss_latency::total   2379879500                       # number of ReadSharedReq MSHR miss cycles
system.l2.demand_mshr_miss_latency::.cpu.inst      8445500                       # number of demand (read+write) MSHR miss cycles
system.l2.demand_mshr_miss_latency::.cpu.data   5291169000                       # number of demand (read+write) MSHR miss cycles
system.l2.demand_mshr_miss_latency::total   5299614500                       # number of demand (read+write) MSHR miss cycles
system.l2.overall_mshr_miss_latency::.cpu.inst      8445500                       # number of overall MSHR miss cycles
system.l2.overall_mshr_miss_latency::.cpu.data   5291169000                       # number of overall MSHR miss cycles
system.l2.overall_mshr_miss_latency::total   5299614500                       # number of overall MSHR miss cycles
system.l2.CleanEvict_mshr_miss_rate::.writebacks          inf                       # mshr miss rate for CleanEvict accesses
system.l2.CleanEvict_mshr_miss_rate::total          inf                       # mshr miss rate for CleanEvict accesses
system.l2.ReadExReq_mshr_miss_rate::.cpu.data     0.998814                       # mshr miss rate for ReadExReq accesses
system.l2.ReadExReq_mshr_miss_rate::total     0.998814                       # mshr miss rate for ReadExReq accesses
system.l2.ReadCleanReq_mshr_miss_rate::.cpu.inst     0.900000                       # mshr miss rate for ReadCleanReq accesses
system.l2.ReadCleanReq_mshr_miss_rate::total     0.900000                       # mshr miss rate for ReadCleanReq accesses
system.l2.ReadSharedReq_mshr_miss_rate::.cpu.data     0.990235                       # mshr miss rate for ReadSharedReq accesses
system.l2.ReadSharedReq_mshr_miss_rate::total     0.990235                       # mshr miss rate for ReadSharedReq accesses
system.l2.demand_mshr_miss_rate::.cpu.inst     0.900000                       # mshr miss rate for demand accesses
system.l2.demand_mshr_miss_rate::.cpu.data     0.994718                       # mshr miss rate for demand accesses
system.l2.demand_mshr_miss_rate::total       0.994550                       # mshr miss rate for demand accesses
system.l2.overall_mshr_miss_rate::.cpu.inst     0.900000                       # mshr miss rate for overall accesses
system.l2.overall_mshr_miss_rate::.cpu.data     0.994718                       # mshr miss rate for overall accesses
system.l2.overall_mshr_miss_rate::total      0.994550                       # mshr miss rate for overall accesses
system.l2.ReadExReq_avg_mshr_miss_latency::.cpu.data 82311.897424                       # average ReadExReq mshr miss latency
system.l2.ReadExReq_avg_mshr_miss_latency::total 82311.897424                       # average ReadExReq mshr miss latency
system.l2.ReadCleanReq_avg_mshr_miss_latency::.cpu.inst 78199.074074                       # average ReadCleanReq mshr miss latency
system.l2.ReadCleanReq_avg_mshr_miss_latency::total 78199.074074                       # average ReadCleanReq mshr miss latency
system.l2.ReadSharedReq_avg_mshr_miss_latency::.cpu.data 74266.796692                       # average ReadSharedReq mshr miss latency
system.l2.ReadSharedReq_avg_mshr_miss_latency::total 74266.796692                       # average ReadSharedReq mshr miss latency
system.l2.demand_avg_mshr_miss_latency::.cpu.inst 78199.074074                       # average overall mshr miss latency
system.l2.demand_avg_mshr_miss_latency::.cpu.data 78487.688017                       # average overall mshr miss latency
system.l2.demand_avg_mshr_miss_latency::total 78487.226385                       # average overall mshr miss latency
system.l2.overall_avg_mshr_miss_latency::.cpu.inst 78199.074074                       # average overall mshr miss latency
system.l2.overall_avg_mshr_miss_latency::.cpu.data 78487.688017                       # average overall mshr miss latency
system.l2.overall_avg_mshr_miss_latency::total 78487.226385                       # average overall mshr miss latency
system.l2.replacements                          35501                       # number of replacements
system.membus.snoop_filter.tot_requests        102426                       # Total number of requests made to the snoop filter.
system.membus.snoop_filter.hit_single_requests        34910                       # Number of requests hitting in the snoop filter with a single holder of the requested data.
system.membus.snoop_filter.hit_multi_requests            0                       # Number of requests hitting in the snoop filter with multiple (>1) holders of the requested data.
system.membus.snoop_filter.tot_snoops               0                       # Total number of snoops made to the snoop filter.
system.membus.snoop_filter.hit_single_snoops            0                       # Number of snoops hitting in the snoop filter with a single holder of the requested data.
system.membus.snoop_filter.hit_multi_snoops            0                       # Number of snoops hitting in the snoop filter with multiple (>1) holders of the requested data.
system.membus.pwrStateResidencyTicks::UNDEFINED  39981371000                       # Cumulative time (in ticks) in various power states
system.membus.trans_dist::ReadResp              32154                       # Transaction distribution
system.membus.trans_dist::WritebackDirty        34783                       # Transaction distribution
system.membus.trans_dist::CleanEvict              120                       # Transaction distribution
system.membus.trans_dist::ReadExReq             35369                       # Transaction distribution
system.membus.trans_dist::ReadExResp            35369                       # Transaction distribution
system.membus.trans_dist::ReadSharedReq         32154                       # Transaction distribution
system.membus.pkt_count_system.l2.mem_side::system.mem_ctrls.port       169949                       # Packet count per connected master and slave (bytes)
system.membus.pkt_count::total                 169949                       # Packet count per connected master and slave (bytes)
system.membus.pkt_size_system.l2.mem_side::system.mem_ctrls.port      6547584                       # Cumulative packet size per connected master and slave (bytes)
system.membus.pkt_size::total                 6547584                       # Cumulative packet size per connected master and slave (bytes)
system.membus.snoops                                0                       # Total snoops (count)
system.membus.snoopTraffic                          0                       # Total snoop traffic (bytes)
system.membus.snoop_fanout::samples             67523                       # Request fanout histogram
system.membus.snoop_fanout::mean                    0                       # Request fanout histogram
system.membus.snoop_fanout::stdev                   0                       # Request fanout histogram
system.membus.snoop_fanout::underflows              0      0.00%      0.00% # Request fanout histogram
system.membus.snoop_fanout::0                   67523    100.00%    100.00% # Request fanout histogram
system.membus.snoop_fanout::1                       0      0.00%    100.00% # Request fanout histogram
system.membus.snoop_fanout::overflows               0      0.00%    100.00% # Request fanout histogram
system.membus.snoop_fanout::min_value               0                       # Request fanout histogram
system.membus.snoop_fanout::max_value               0                       # Request fanout histogram
system.membus.snoop_fanout::total               67523                       # Request fanout histogram
system.membus.reqLayer0.occupancy           250690500                       # Layer occupancy (ticks)
system.membus.reqLayer0.utilization               0.6                       # Layer utilization (%)
system.membus.respLayer1.occupancy          357029750                       # Layer occupancy (ticks)
system.membus.respLayer1.utilization              0.9                       # Layer utilization (%)
system.tol2bus.snoop_filter.tot_requests       134878                       # Total number of requests made to the snoop filter.
system.tol2bus.snoop_filter.hit_single_requests        66971                       # Number of requests hitting in the snoop filter with a single holder of the requested data.
system.tol2bus.snoop_filter.hit_multi_requests           47                       # Number of requests hitting in the snoop filter with multiple (>1) holders of the requested data.
system.tol2bus.snoop_filter.tot_snoops            601                       # Total number of snoops made to the snoop filter.
system.tol2bus.snoop_filter.hit_single_snoops          599                       # Number of snoops hitting in the snoop filter with a single holder of the requested data.
system.tol2bus.snoop_filter.hit_multi_snoops            2                       # Number of snoops hitting in the snoop filter with multiple (>1) holders of the requested data.
system.tol2bus.pwrStateResidencyTicks::UNDEFINED  39981371000                       # Cumulative time (in ticks) in various power states
system.tol2bus.trans_dist::ReadResp             32483                       # Transaction distribution
system.tol2bus.trans_dist::WritebackDirty       101443                       # Transaction distribution
system.tol2bus.trans_dist::WritebackClean           37                       # Transaction distribution
system.tol2bus.trans_dist::CleanEvict            1007                       # Transaction distribution
system.tol2bus.trans_dist::ReadExReq            35411                       # Transaction distribution
system.tol2bus.trans_dist::ReadExResp           35411                       # Transaction distribution
system.tol2bus.trans_dist::ReadCleanReq           120                       # Transaction distribution
system.tol2bus.trans_dist::ReadSharedReq        32361                       # Transaction distribution
system.tol2bus.pkt_count_system.cpu.icache.mem_side::system.l2.cpu_side          279                       # Packet count per connected master and slave (bytes)
system.tol2bus.pkt_count_system.cpu.dcache.mem_side::system.l2.cpu_side       202493                       # Packet count per connected master and slave (bytes)
system.tol2bus.pkt_count::total                202772                       # Packet count per connected master and slave (bytes)
system.tol2bus.pkt_size_system.cpu.icache.mem_side::system.l2.cpu_side        10176                       # Cumulative packet size per connected master and slave (bytes)
system.tol2bus.pkt_size_system.cpu.dcache.mem_side::system.l2.cpu_side      8603648                       # Cumulative packet size per connected master and slave (bytes)
system.tol2bus.pkt_size::total                8613824                       # Cumulative packet size per connected master and slave (bytes)
system.tol2bus.snoops                           35501                       # Total snoops (count)
system.tol2bus.snoopTraffic                   2226112                       # Total snoop traffic (bytes)
system.tol2bus.snoop_fanout::samples           103393                       # Request fanout histogram
system.tol2bus.snoop_fanout::mean            0.006142                       # Request fanout histogram
system.tol2bus.snoop_fanout::stdev           0.078375                       # Request fanout histogram
system.tol2bus.snoop_fanout::underflows             0      0.00%      0.00% # Request fanout histogram
system.tol2bus.snoop_fanout::0                 102760     99.39%     99.39% # Request fanout histogram
system.tol2bus.snoop_fanout::1                    631      0.61%    100.00% # Request fanout histogram
system.tol2bus.snoop_fanout::2                      2      0.00%    100.00% # Request fanout histogram
system.tol2bus.snoop_fanout::overflows              0      0.00%    100.00% # Request fanout histogram
system.tol2bus.snoop_fanout::min_value              0                       # Request fanout histogram
system.tol2bus.snoop_fanout::max_value              2                       # Request fanout histogram
system.tol2bus.snoop_fanout::total             103393                       # Request fanout histogram
system.tol2bus.reqLayer0.occupancy          134136000                       # Layer occupancy (ticks)
system.tol2bus.reqLayer0.utilization              0.3                       # Layer utilization (%)
system.tol2bus.respLayer0.occupancy            183000                       # Layer occupancy (ticks)
system.tol2bus.respLayer0.utilization             0.0                       # Layer utilization (%)
system.tol2bus.respLayer1.occupancy         101658499                       # Layer occupancy (ticks)
system.tol2bus.respLayer1.utilization             0.3                       # Layer utilization (%)

---------- End Simulation Statistics   ----------
