
---------- Begin Simulation Statistics ----------
sim_seconds                                  0.021683                       # Number of seconds simulated
sim_ticks                                 21682590000                       # Number of ticks simulated
final_tick                                21717871500                       # Number of ticks from beginning of simulation (restored from checkpoints and never reset)
sim_freq                                 1000000000000                       # Frequency of simulated ticks
host_inst_rate                                 262197                       # Simulator instruction rate (inst/s)
host_op_rate                                   289683                       # Simulator op (including micro ops) rate (op/s)
host_tick_rate                               64963769                       # Simulator tick rate (ticks/s)
host_mem_usage                                 813792                       # Number of bytes of host memory used
host_seconds                                   333.76                       # Real time elapsed on the host
sim_insts                                    87512087                       # Number of instructions simulated
sim_ops                                      96685734                       # Number of ops (including micro ops) simulated
system.voltage_domain.voltage                       1                       # Voltage in Volts
system.clk_domain.clock                          1000                       # Clock period in ticks
system.mem_ctrls.pwrStateResidencyTicks::UNDEFINED  21717871500                       # Cumulative time (in ticks) in various power states
system.mem_ctrls.bytes_read::.cpu.inst           3968                       # Number of bytes read from this memory
system.mem_ctrls.bytes_read::.cpu.data        4312704                       # Number of bytes read from this memory
system.mem_ctrls.bytes_read::total            4316672                       # Number of bytes read from this memory
system.mem_ctrls.bytes_inst_read::.cpu.inst         3968                       # Number of instructions bytes read from this memory
system.mem_ctrls.bytes_inst_read::total          3968                       # Number of instructions bytes read from this memory
system.mem_ctrls.bytes_written::.writebacks      2220864                       # Number of bytes written to this memory
system.mem_ctrls.bytes_written::total         2220864                       # Number of bytes written to this memory
system.mem_ctrls.num_reads::.cpu.inst              62                       # Number of read requests responded to by this memory
system.mem_ctrls.num_reads::.cpu.data           67386                       # Number of read requests responded to by this memory
system.mem_ctrls.num_reads::total               67448                       # Number of read requests responded to by this memory
system.mem_ctrls.num_writes::.writebacks        34701                       # Number of write requests responded to by this memory
system.mem_ctrls.num_writes::total              34701                       # Number of write requests responded to by this memory
system.mem_ctrls.bw_read::.cpu.inst            183004                       # Total read bandwidth from this memory (bytes/s)
system.mem_ctrls.bw_read::.cpu.data         198901699                       # Total read bandwidth from this memory (bytes/s)
system.mem_ctrls.bw_read::total             199084703                       # Total read bandwidth from this memory (bytes/s)
system.mem_ctrls.bw_inst_read::.cpu.inst       183004                       # Instruction read bandwidth from this memory (bytes/s)
system.mem_ctrls.bw_inst_read::total           183004                       # Instruction read bandwidth from this memory (bytes/s)
system.mem_ctrls.bw_write::.writebacks      102426140                       # Write bandwidth from this memory (bytes/s)
system.mem_ctrls.bw_write::total            102426140                       # Write bandwidth from this memory (bytes/s)
system.mem_ctrls.bw_total::.writebacks      102426140                       # Total bandwidth to/from this memory (bytes/s)
system.mem_ctrls.bw_total::.cpu.inst           183004                       # Total bandwidth to/from this memory (bytes/s)
system.mem_ctrls.bw_total::.cpu.data        198901699                       # Total bandwidth to/from this memory (bytes/s)
system.mem_ctrls.bw_total::total            301510843                       # Total bandwidth to/from this memory (bytes/s)
system.mem_ctrls.avgPriority_.writebacks::samples     34701.00                       # Average QoS priority value for accepted requests
system.mem_ctrls.avgPriority_.cpu.inst::samples        62.00                       # Average QoS priority value for accepted requests
system.mem_ctrls.avgPriority_.cpu.data::samples     67387.00                       # Average QoS priority value for accepted requests
system.mem_ctrls.priorityMinLatency      0.000000018750                       # per QoS priority minimum request to response latency (s)
system.mem_ctrls.priorityMaxLatency      0.002169376500                       # per QoS priority maximum request to response latency (s)
system.mem_ctrls.numReadWriteTurnArounds         2036                       # Number of turnarounds from READ to WRITE
system.mem_ctrls.numWriteReadTurnArounds         2036                       # Number of turnarounds from WRITE to READ
system.mem_ctrls.numStayReadState              171053                       # Number of times bus staying in READ state
system.mem_ctrls.numStayWriteState              32723                       # Number of times bus staying in WRITE state
system.mem_ctrls.readReqs                       67449                       # Number of read requests accepted
system.mem_ctrls.writeReqs                      34701                       # Number of write requests accepted
system.mem_ctrls.readBursts                     67449                       # Number of DRAM read bursts, including those serviced by the write queue
system.mem_ctrls.writeBursts                    34701                       # Number of DRAM write bursts, including those merged in the write queue
system.mem_ctrls.bytesReadDRAM                4316736                       # Total number of bytes read from DRAM
system.mem_ctrls.bytesReadWrQ                       0                       # Total number of bytes read from write queue
system.mem_ctrls.bytesWritten                 2219904                       # Total number of bytes written to DRAM
system.mem_ctrls.bytesReadSys                 4316736                       # Total read bytes from the system interface side
system.mem_ctrls.bytesWrittenSys              2220864                       # Total written bytes from the system interface side
system.mem_ctrls.servicedByWrQ                      0                       # Number of DRAM read bursts serviced by the write queue
system.mem_ctrls.mergedWrBursts                     0                       # Number of DRAM write bursts merged with an existing one
system.mem_ctrls.neitherReadNorWriteReqs            0                       # Number of requests that are neither read nor write
system.mem_ctrls.perBankRdBursts::0              4258                       # Per bank write bursts
system.mem_ctrls.perBankRdBursts::1              4240                       # Per bank write bursts
system.mem_ctrls.perBankRdBursts::2              4189                       # Per bank write bursts
system.mem_ctrls.perBankRdBursts::3              4240                       # Per bank write bursts
system.mem_ctrls.perBankRdBursts::4              4225                       # Per bank write bursts
system.mem_ctrls.perBankRdBursts::5              4224                       # Per bank write bursts
system.mem_ctrls.perBankRdBursts::6              4225                       # Per bank write bursts
system.mem_ctrls.perBankRdBursts::7              4224                       # Per bank write bursts
system.mem_ctrls.perBankRdBursts::8              4225                       # Per bank write bursts
system.mem_ctrls.perBankRdBursts::9              4228                       # Per bank write bursts
system.mem_ctrls.perBankRdBursts::10             4224                       # Per bank write bursts
system.mem_ctrls.perBankRdBursts::11             4225                       # Per bank write bursts
system.mem_ctrls.perBankRdBursts::12             4229                       # Per bank write bursts
system.mem_ctrls.perBankRdBursts::13             4106                       # Per bank write bursts
system.mem_ctrls.perBankRdBursts::14             4163                       # Per bank write bursts
system.mem_ctrls.perBankRdBursts::15             4224                       # Per bank write bursts
system.mem_ctrls.perBankWrBursts::0              2182                       # Per bank write bursts
system.mem_ctrls.perBankWrBursts::1              2194                       # Per bank write bursts
system.mem_ctrls.perBankWrBursts::2              2132                       # Per bank write bursts
system.mem_ctrls.perBankWrBursts::3              2178                       # Per bank write bursts
system.mem_ctrls.perBankWrBursts::4              2177                       # Per bank write bursts
system.mem_ctrls.perBankWrBursts::5              2176                       # Per bank write bursts
system.mem_ctrls.perBankWrBursts::6              2176                       # Per bank write bursts
system.mem_ctrls.perBankWrBursts::7              2176                       # Per bank write bursts
system.mem_ctrls.perBankWrBursts::8              2177                       # Per bank write bursts
system.mem_ctrls.perBankWrBursts::9              2177                       # Per bank write bursts
system.mem_ctrls.perBankWrBursts::10             2179                       # Per bank write bursts
system.mem_ctrls.perBankWrBursts::11             2177                       # Per bank write bursts
system.mem_ctrls.perBankWrBursts::12             2177                       # Per bank write bursts
system.mem_ctrls.perBankWrBursts::13             2060                       # Per bank write bursts
system.mem_ctrls.perBankWrBursts::14             2156                       # Per bank write bursts
system.mem_ctrls.perBankWrBursts::15             2192                       # Per bank write bursts
system.mem_ctrls.numRdRetry                         0                       # Number of times read queue was full causing retry
system.mem_ctrls.numWrRetry                         0                       # Number of times write queue was full causing retry
system.mem_ctrls.totGap                   21682632500                       # Total gap between requests
system.mem_ctrls.readPktSize::0                     0                       # Read request sizes (log2)
system.mem_ctrls.readPktSize::1                     0                       # Read request sizes (log2)
system.mem_ctrls.readPktSize::2                     0                       # Read request sizes (log2)
system.mem_ctrls.readPktSize::3                     0                       # Read request sizes (log2)
system.mem_ctrls.readPktSize::4                     0                       # Read request sizes (log2)
system.mem_ctrls.readPktSize::5                     0                       # Read request sizes (log2)
system.mem_ctrls.readPktSize::6                 67449                       # Read request sizes (log2)
system.mem_ctrls.writePktSize::0                    0                       # Write request sizes (log2)
system.mem_ctrls.writePktSize::1                    0                       # Write request sizes (log2)
system.mem_ctrls.writePktSize::2                    0                       # Write request sizes (log2)
system.mem_ctrls.writePktSize::3                    0                       # Write request sizes (log2)
system.mem_ctrls.writePktSize::4                    0                       # Write request sizes (log2)
system.mem_ctrls.writePktSize::5                    0                       # Write request sizes (log2)
system.mem_ctrls.writePktSize::6                34701                       # Write request sizes (log2)
system.mem_ctrls.rdQLenPdf::0                   51967                       # What read queue length does an incoming req see
system.mem_ctrls.rdQLenPdf::1                   15475                       # What read queue length does an incoming req see
system.mem_ctrls.rdQLenPdf::2                       6                       # What read queue length does an incoming req see
system.mem_ctrls.rdQLenPdf::3                       1                       # What read queue length does an incoming req see
system.mem_ctrls.rdQLenPdf::4                       0                       # What read queue length does an incoming req see
system.mem_ctrls.rdQLenPdf::5                       0                       # What read queue length does an incoming req see
system.mem_ctrls.rdQLenPdf::6                       0                       # What read queue length does an incoming req see
system.mem_ctrls.rdQLenPdf::7                       0                       # What read queue length does an incoming req see
system.mem_ctrls.rdQLenPdf::8                       0                       # What read queue length does an incoming req see
system.mem_ctrls.rdQLenPdf::9                       0                       # What read queue length does an incoming req see
system.mem_ctrls.rdQLenPdf::10                      0                       # What read queue length does an incoming req see
system.mem_ctrls.rdQLenPdf::11                      0                       # What read queue length does an incoming req see
system.mem_ctrls.rdQLenPdf::12                      0                       # What read queue length does an incoming req see
system.mem_ctrls.rdQLenPdf::13                      0                       # What read queue length does an incoming req see
system.mem_ctrls.rdQLenPdf::14                      0                       # What read queue length does an incoming req see
system.mem_ctrls.rdQLenPdf::15                      0                       # What read queue length does an incoming req see
system.mem_ctrls.rdQLenPdf::16                      0                       # What read queue length does an incoming req see
system.mem_ctrls.rdQLenPdf::17                      0                       # What read queue length does an incoming req see
system.mem_ctrls.rdQLenPdf::18                      0                       # What read queue length does an incoming req see
system.mem_ctrls.rdQLenPdf::19                      0                       # What read queue length does an incoming req see
system.mem_ctrls.rdQLenPdf::20                      0                       # What read queue length does an incoming req see
system.mem_ctrls.rdQLenPdf::21                      0                       # What read queue length does an incoming req see
system.mem_ctrls.rdQLenPdf::22                      0                       # What read queue length does an incoming req see
system.mem_ctrls.rdQLenPdf::23                      0                       # What read queue length does an incoming req see
system.mem_ctrls.rdQLenPdf::24                      0                       # What read queue length does an incoming req see
system.mem_ctrls.rdQLenPdf::25                      0                       # What read queue length does an incoming req see
system.mem_ctrls.rdQLenPdf::26                      0                       # What read queue length does an incoming req see
system.mem_ctrls.rdQLenPdf::27                      0                       # What read queue length does an incoming req see
system.mem_ctrls.rdQLenPdf::28                      0                       # What read queue length does an incoming req see
system.mem_ctrls.rdQLenPdf::29                      0                       # What read queue length does an incoming req see
system.mem_ctrls.rdQLenPdf::30                      0                       # What read queue length does an incoming req see
system.mem_ctrls.rdQLenPdf::31                      0                       # What read queue length does an incoming req see
system.mem_ctrls.wrQLenPdf::0                       1                       # What write queue length does an incoming req see
system.mem_ctrls.wrQLenPdf::1                       1                       # What write queue length does an incoming req see
system.mem_ctrls.wrQLenPdf::2                       1                       # What write queue length does an incoming req see
system.mem_ctrls.wrQLenPdf::3                       1                       # What write queue length does an incoming req see
system.mem_ctrls.wrQLenPdf::4                       1                       # What write queue length does an incoming req see
system.mem_ctrls.wrQLenPdf::5                       1                       # What write queue length does an incoming req see
system.mem_ctrls.wrQLenPdf::6                       1                       # What write queue length does an incoming req see
system.mem_ctrls.wrQLenPdf::7                       1                       # What write queue length does an incoming req see
system.mem_ctrls.wrQLenPdf::8                       1                       # What write queue length does an incoming req see
system.mem_ctrls.wrQLenPdf::9                       1                       # What write queue length does an incoming req see
system.mem_ctrls.wrQLenPdf::10                      1                       # What write queue length does an incoming req see
system.mem_ctrls.wrQLenPdf::11                      1                       # What write queue length does an incoming req see
system.mem_ctrls.wrQLenPdf::12                      1                       # What write queue length does an incoming req see
system.mem_ctrls.wrQLenPdf::13                      1                       # What write queue length does an incoming req see
system.mem_ctrls.wrQLenPdf::14                      1                       # What write queue length does an incoming req see
system.mem_ctrls.wrQLenPdf::15                   1019                       # What write queue length does an incoming req see
system.mem_ctrls.wrQLenPdf::16                   1043                       # What write queue length does an incoming req see
system.mem_ctrls.wrQLenPdf::17                   1621                       # What write queue length does an incoming req see
system.mem_ctrls.wrQLenPdf::18                   2035                       # What write queue length does an incoming req see
system.mem_ctrls.wrQLenPdf::19                   2036                       # What write queue length does an incoming req see
system.mem_ctrls.wrQLenPdf::20                   2036                       # What write queue length does an incoming req see
system.mem_ctrls.wrQLenPdf::21                   2038                       # What write queue length does an incoming req see
system.mem_ctrls.wrQLenPdf::22                   2036                       # What write queue length does an incoming req see
system.mem_ctrls.wrQLenPdf::23                   2036                       # What write queue length does an incoming req see
system.mem_ctrls.wrQLenPdf::24                   2036                       # What write queue length does an incoming req see
system.mem_ctrls.wrQLenPdf::25                   2036                       # What write queue length does an incoming req see
system.mem_ctrls.wrQLenPdf::26                   2038                       # What write queue length does an incoming req see
system.mem_ctrls.wrQLenPdf::27                   2045                       # What write queue length does an incoming req see
system.mem_ctrls.wrQLenPdf::28                   2046                       # What write queue length does an incoming req see
system.mem_ctrls.wrQLenPdf::29                   2072                       # What write queue length does an incoming req see
system.mem_ctrls.wrQLenPdf::30                   2135                       # What write queue length does an incoming req see
system.mem_ctrls.wrQLenPdf::31                   2041                       # What write queue length does an incoming req see
system.mem_ctrls.wrQLenPdf::32                   2333                       # What write queue length does an incoming req see
system.mem_ctrls.wrQLenPdf::33                      4                       # What write queue length does an incoming req see
system.mem_ctrls.wrQLenPdf::34                      0                       # What write queue length does an incoming req see
system.mem_ctrls.wrQLenPdf::35                      0                       # What write queue length does an incoming req see
system.mem_ctrls.wrQLenPdf::36                      0                       # What write queue length does an incoming req see
system.mem_ctrls.wrQLenPdf::37                      0                       # What write queue length does an incoming req see
system.mem_ctrls.wrQLenPdf::38                      0                       # What write queue length does an incoming req see
system.mem_ctrls.wrQLenPdf::39                      0                       # What write queue length does an incoming req see
system.mem_ctrls.wrQLenPdf::40                      0                       # What write queue length does an incoming req see
system.mem_ctrls.wrQLenPdf::41                      0                       # What write queue length does an incoming req see
system.mem_ctrls.wrQLenPdf::42                      0                       # What write queue length does an incoming req see
system.mem_ctrls.wrQLenPdf::43                      0                       # What write queue length does an incoming req see
system.mem_ctrls.wrQLenPdf::44                      0                       # What write queue length does an incoming req see
system.mem_ctrls.wrQLenPdf::45                      0                       # What write queue length does an incoming req see
system.mem_ctrls.wrQLenPdf::46                      0                       # What write queue length does an incoming req see
system.mem_ctrls.wrQLenPdf::47                      0                       # What write queue length does an incoming req see
system.mem_ctrls.wrQLenPdf::48                      0                       # What write queue length does an incoming req see
system.mem_ctrls.wrQLenPdf::49                      0                       # What write queue length does an incoming req see
system.mem_ctrls.wrQLenPdf::50                      0                       # What write queue length does an incoming req see
system.mem_ctrls.wrQLenPdf::51                      0                       # What write queue length does an incoming req see
system.mem_ctrls.wrQLenPdf::52                      0                       # What write queue length does an incoming req see
system.mem_ctrls.wrQLenPdf::53                      0                       # What write queue length does an incoming req see
system.mem_ctrls.wrQLenPdf::54                      0                       # What write queue length does an incoming req see
system.mem_ctrls.wrQLenPdf::55                      0                       # What write queue length does an incoming req see
system.mem_ctrls.wrQLenPdf::56                      0                       # What write queue length does an incoming req see
system.mem_ctrls.wrQLenPdf::57                      0                       # What write queue length does an incoming req see
system.mem_ctrls.wrQLenPdf::58                      0                       # What write queue length does an incoming req see
system.mem_ctrls.wrQLenPdf::59                      0                       # What write queue length does an incoming req see
system.mem_ctrls.wrQLenPdf::60                      0                       # What write queue length does an incoming req see
system.mem_ctrls.wrQLenPdf::61                      0                       # What write queue length does an incoming req see
system.mem_ctrls.wrQLenPdf::62                      0                       # What write queue length does an incoming req see
system.mem_ctrls.wrQLenPdf::63                      0                       # What write queue length does an incoming req see
system.mem_ctrls.bytesPerActivate::samples        11929                       # Bytes accessed per row activation
system.mem_ctrls.bytesPerActivate::mean    548.192807                       # Bytes accessed per row activation
system.mem_ctrls.bytesPerActivate::gmean   396.904993                       # Bytes accessed per row activation
system.mem_ctrls.bytesPerActivate::stdev   357.212333                       # Bytes accessed per row activation
system.mem_ctrls.bytesPerActivate::0-127          837      7.02%      7.02% # Bytes accessed per row activation
system.mem_ctrls.bytesPerActivate::128-255         2858     23.96%     30.97% # Bytes accessed per row activation
system.mem_ctrls.bytesPerActivate::256-383         1001      8.39%     39.37% # Bytes accessed per row activation
system.mem_ctrls.bytesPerActivate::384-511          780      6.54%     45.90% # Bytes accessed per row activation
system.mem_ctrls.bytesPerActivate::512-639          759      6.36%     52.27% # Bytes accessed per row activation
system.mem_ctrls.bytesPerActivate::640-767         1515     12.70%     64.97% # Bytes accessed per row activation
system.mem_ctrls.bytesPerActivate::768-895          952      7.98%     72.95% # Bytes accessed per row activation
system.mem_ctrls.bytesPerActivate::896-1023          531      4.45%     77.40% # Bytes accessed per row activation
system.mem_ctrls.bytesPerActivate::1024-1151         2696     22.60%    100.00% # Bytes accessed per row activation
system.mem_ctrls.bytesPerActivate::total        11929                       # Bytes accessed per row activation
system.mem_ctrls.rdPerTurnAround::samples         2036                       # Reads before turning the bus around for writes
system.mem_ctrls.rdPerTurnAround::mean      33.491650                       # Reads before turning the bus around for writes
system.mem_ctrls.rdPerTurnAround::gmean     17.279362                       # Reads before turning the bus around for writes
system.mem_ctrls.rdPerTurnAround::stdev    661.102061                       # Reads before turning the bus around for writes
system.mem_ctrls.rdPerTurnAround::0-1023         2034     99.90%     99.90% # Reads before turning the bus around for writes
system.mem_ctrls.rdPerTurnAround::2048-3071            1      0.05%     99.95% # Reads before turning the bus around for writes
system.mem_ctrls.rdPerTurnAround::29696-30719            1      0.05%    100.00% # Reads before turning the bus around for writes
system.mem_ctrls.rdPerTurnAround::total          2036                       # Reads before turning the bus around for writes
system.mem_ctrls.wrPerTurnAround::samples         2036                       # Writes before turning the bus around for reads
system.mem_ctrls.wrPerTurnAround::mean      17.036346                       # Writes before turning the bus around for reads
system.mem_ctrls.wrPerTurnAround::gmean     17.006091                       # Writes before turning the bus around for reads
system.mem_ctrls.wrPerTurnAround::stdev      1.015194                       # Writes before turning the bus around for reads
system.mem_ctrls.wrPerTurnAround::16              984     48.33%     48.33% # Writes before turning the bus around for reads
system.mem_ctrls.wrPerTurnAround::17               23      1.13%     49.46% # Writes before turning the bus around for reads
system.mem_ctrls.wrPerTurnAround::18             1000     49.12%     98.58% # Writes before turning the bus around for reads
system.mem_ctrls.wrPerTurnAround::19               29      1.42%    100.00% # Writes before turning the bus around for reads
system.mem_ctrls.wrPerTurnAround::total          2036                       # Writes before turning the bus around for reads
system.mem_ctrls.masterReadBytes::.cpu.inst         3968                       # Per-master bytes read from memory
system.mem_ctrls.masterReadBytes::.cpu.data      4312768                       # Per-master bytes read from memory
system.mem_ctrls.masterWriteBytes::.writebacks      2219904                       # Per-master bytes write to memory
system.mem_ctrls.masterReadRate::.cpu.inst 183003.967699430737                       # Per-master bytes read from memory rate (Bytes/sec)
system.mem_ctrls.masterReadRate::.cpu.data 198904651.150992542505                       # Per-master bytes read from memory rate (Bytes/sec)
system.mem_ctrls.masterWriteRate::.writebacks 102381864.897136360407                       # Per-master bytes write to memory rate (Bytes/sec)
system.mem_ctrls.masterReadAccesses::.cpu.inst           62                       # Per-master read serviced memory accesses
system.mem_ctrls.masterReadAccesses::.cpu.data        67387                       # Per-master read serviced memory accesses
system.mem_ctrls.masterWriteAccesses::.writebacks        34701                       # Per-master write serviced memory accesses
system.mem_ctrls.masterReadTotalLat::.cpu.inst      1847250                       # Per-master read total memory access latency
system.mem_ctrls.masterReadTotalLat::.cpu.data   2484572500                       # Per-master read total memory access latency
system.mem_ctrls.masterWriteTotalLat::.writebacks 293516700250                       # Per-master write total memory access latency
system.mem_ctrls.masterReadAvgLat::.cpu.inst     29794.35                       # Per-master read average memory access latency
system.mem_ctrls.masterReadAvgLat::.cpu.data     36870.20                       # Per-master read average memory access latency
system.mem_ctrls.masterWriteAvgLat::.writebacks   8458450.77                       # Per-master write average memory access latency
system.mem_ctrls.totQLat                   1221751000                       # Total ticks spent queuing
system.mem_ctrls.totMemAccLat              2486419750                       # Total ticks spent from burst creation until serviced by the DRAM
system.mem_ctrls.totBusLat                  337245000                       # Total ticks spent in databus transfers
system.mem_ctrls.avgQLat                     18113.70                       # Average queueing delay per DRAM burst
system.mem_ctrls.avgBusLat                    5000.00                       # Average bus latency per DRAM burst
system.mem_ctrls.avgMemAccLat                36863.70                       # Average memory access latency per DRAM burst
system.mem_ctrls.avgRdBW                       199.09                       # Average DRAM read bandwidth in MiByte/s
system.mem_ctrls.avgWrBW                       102.38                       # Average achieved write bandwidth in MiByte/s
system.mem_ctrls.avgRdBWSys                    199.09                       # Average system read bandwidth in MiByte/s
system.mem_ctrls.avgWrBWSys                    102.43                       # Average system write bandwidth in MiByte/s
system.mem_ctrls.peakBW                      12800.00                       # Theoretical peak bandwidth in MiByte/s
system.mem_ctrls.busUtil                         2.36                       # Data bus utilization in percentage
system.mem_ctrls.busUtilRead                     1.56                       # Data bus utilization in percentage for reads
system.mem_ctrls.busUtilWrite                    0.80                       # Data bus utilization in percentage for writes
system.mem_ctrls.avgRdQLen                       1.07                       # Average read queue length when enqueuing
system.mem_ctrls.avgWrQLen                      14.05                       # Average write queue length when enqueuing
system.mem_ctrls.readRowHits                    59012                       # Number of row buffer hits during reads
system.mem_ctrls.writeRowHits                   31202                       # Number of row buffer hits during writes
system.mem_ctrls.readRowHitRate                 87.49                       # Row buffer hit rate for reads
system.mem_ctrls.writeRowHitRate                89.92                       # Row buffer hit rate for writes
system.mem_ctrls.avgGap                     212262.68                       # Average gap between requests
system.mem_ctrls.pageHitRate                    88.32                       # Row buffer hit rate, read and write combined
system.mem_ctrls_0.actEnergy                 42383040                       # Energy for activate commands per rank (pJ)
system.mem_ctrls_0.preEnergy                 22519530                       # Energy for precharge commands per rank (pJ)
system.mem_ctrls_0.readEnergy               241960320                       # Energy for read commands per rank (pJ)
system.mem_ctrls_0.writeEnergy               90781020                       # Energy for write commands per rank (pJ)
system.mem_ctrls_0.refreshEnergy         1220060400.000000                       # Energy for refresh commands per rank (pJ)
system.mem_ctrls_0.actBackEnergy            900512790                       # Energy for active background per rank (pJ)
system.mem_ctrls_0.preBackEnergy             51574080                       # Energy for precharge background per rank (pJ)
system.mem_ctrls_0.actPowerDownEnergy      4994692830                       # Energy for active power-down per rank (pJ)
system.mem_ctrls_0.prePowerDownEnergy       935670720                       # Energy for precharge power-down per rank (pJ)
system.mem_ctrls_0.selfRefreshEnergy       1572785760                       # Energy for self refresh per rank (pJ)
system.mem_ctrls_0.totalEnergy            10073728740                       # Total energy per rank (pJ)
system.mem_ctrls_0.averagePower            464.599881                       # Core power per rank (mW)
system.mem_ctrls_0.totalIdleTime          19573317500                       # Total Idle time Per DRAM Rank
system.mem_ctrls_0.memoryStateTime::IDLE     60362000                       # Time in different power states
system.mem_ctrls_0.memoryStateTime::REF     516100000                       # Time in different power states
system.mem_ctrls_0.memoryStateTime::SREF   6185658250                       # Time in different power states
system.mem_ctrls_0.memoryStateTime::PRE_PDN   2436616500                       # Time in different power states
system.mem_ctrls_0.memoryStateTime::ACT    1532835250                       # Time in different power states
system.mem_ctrls_0.memoryStateTime::ACT_PDN  10951042750                       # Time in different power states
system.mem_ctrls_1.actEnergy                 42847140                       # Energy for activate commands per rank (pJ)
system.mem_ctrls_1.preEnergy                 22766205                       # Energy for precharge commands per rank (pJ)
system.mem_ctrls_1.readEnergy               240211020                       # Energy for read commands per rank (pJ)
system.mem_ctrls_1.writeEnergy               90279900                       # Energy for write commands per rank (pJ)
system.mem_ctrls_1.refreshEnergy         1224362880.000000                       # Energy for refresh commands per rank (pJ)
system.mem_ctrls_1.actBackEnergy            900951120                       # Energy for active background per rank (pJ)
system.mem_ctrls_1.preBackEnergy             50203680                       # Energy for precharge background per rank (pJ)
system.mem_ctrls_1.actPowerDownEnergy      5009618280                       # Energy for active power-down per rank (pJ)
system.mem_ctrls_1.prePowerDownEnergy       943619520                       # Energy for precharge power-down per rank (pJ)
system.mem_ctrls_1.selfRefreshEnergy       1549543560                       # Energy for self refresh per rank (pJ)
system.mem_ctrls_1.totalEnergy            10075197105                       # Total energy per rank (pJ)
system.mem_ctrls_1.averagePower            464.667602                       # Core power per rank (mW)
system.mem_ctrls_1.totalIdleTime          19574926250                       # Total Idle time Per DRAM Rank
system.mem_ctrls_1.memoryStateTime::IDLE     56835000                       # Time in different power states
system.mem_ctrls_1.memoryStateTime::REF     517920000                       # Time in different power states
system.mem_ctrls_1.memoryStateTime::SREF   6134826500                       # Time in different power states
system.mem_ctrls_1.memoryStateTime::PRE_PDN   2457113000                       # Time in different power states
system.mem_ctrls_1.memoryStateTime::ACT    1533152500                       # Time in different power states
system.mem_ctrls_1.memoryStateTime::ACT_PDN  10982986750                       # Time in different power states
system.pwrStateResidencyTicks::UNDEFINED  21717871500                       # Cumulative time (in ticks) in various power states
system.cpu.branchPred.lookups                21114575                       # Number of BP lookups
system.cpu.branchPred.condPredicted          17039332                       # Number of conditional branches predicted
system.cpu.branchPred.condIncorrect            313004                       # Number of conditional branches incorrect
system.cpu.branchPred.BTBLookups             13160367                       # Number of BTB lookups
system.cpu.branchPred.BTBHits                12973470                       # Number of BTB hits
system.cpu.branchPred.BTBCorrect                    0                       # Number of correct BTB predictions (this stat may not work properly.
system.cpu.branchPred.BTBHitPct             98.579850                       # BTB Hit Percentage
system.cpu.branchPred.usedRAS                  416045                       # Number of times the RAS was used to get a target.
system.cpu.branchPred.RASInCorrect              13587                       # Number of incorrect RAS predictions.
system.cpu.branchPred.indirectLookups           56955                       # Number of indirect predictor lookups.
system.cpu.branchPred.indirectHits              52439                       # Number of indirect target hits.
system.cpu.branchPred.indirectMisses             4516                       # Number of indirect misses.
system.cpu.branchPredindirectMispredicted         1989                       # Number of mispredicted indirect branches.
system.cpu_voltage_domain.voltage                   1                       # Voltage in Volts
system.cpu_clk_domain.clock                       500                       # Clock period in ticks
system.cpu.dstage2_mmu.stage2_tlb.walker.pwrStateResidencyTicks::UNDEFINED  21717871500                       # Cumulative time (in ticks) in various power states
system.cpu.dstage2_mmu.stage2_tlb.walker.walks            0                       # Table walker walks requested
system.cpu.dstage2_mmu.stage2_tlb.walker.walkRequestOrigin_Requested::Data            0                       # Table walker requests started/completed, data/inst
system.cpu.dstage2_mmu.stage2_tlb.walker.walkRequestOrigin_Requested::Inst            0                       # Table walker requests started/completed, data/inst
system.cpu.dstage2_mmu.stage2_tlb.walker.walkRequestOrigin_Requested::total            0                       # Table walker requests started/completed, data/inst
system.cpu.dstage2_mmu.stage2_tlb.walker.walkRequestOrigin_Completed::Data            0                       # Table walker requests started/completed, data/inst
system.cpu.dstage2_mmu.stage2_tlb.walker.walkRequestOrigin_Completed::Inst            0                       # Table walker requests started/completed, data/inst
system.cpu.dstage2_mmu.stage2_tlb.walker.walkRequestOrigin_Completed::total            0                       # Table walker requests started/completed, data/inst
system.cpu.dstage2_mmu.stage2_tlb.walker.walkRequestOrigin::total            0                       # Table walker requests started/completed, data/inst
system.cpu.dstage2_mmu.stage2_tlb.inst_hits            0                       # ITB inst hits
system.cpu.dstage2_mmu.stage2_tlb.inst_misses            0                       # ITB inst misses
system.cpu.dstage2_mmu.stage2_tlb.read_hits            0                       # DTB read hits
system.cpu.dstage2_mmu.stage2_tlb.read_misses            0                       # DTB read misses
system.cpu.dstage2_mmu.stage2_tlb.write_hits            0                       # DTB write hits
system.cpu.dstage2_mmu.stage2_tlb.write_misses            0                       # DTB write misses
system.cpu.dstage2_mmu.stage2_tlb.flush_tlb            0                       # Number of times complete TLB was flushed
system.cpu.dstage2_mmu.stage2_tlb.flush_tlb_mva            0                       # Number of times TLB was flushed by MVA
system.cpu.dstage2_mmu.stage2_tlb.flush_tlb_mva_asid            0                       # Number of times TLB was flushed by MVA & ASID
system.cpu.dstage2_mmu.stage2_tlb.flush_tlb_asid            0                       # Number of times TLB was flushed by ASID
system.cpu.dstage2_mmu.stage2_tlb.flush_entries            0                       # Number of entries that have been flushed from TLB
system.cpu.dstage2_mmu.stage2_tlb.align_faults            0                       # Number of TLB faults due to alignment restrictions
system.cpu.dstage2_mmu.stage2_tlb.prefetch_faults            0                       # Number of TLB faults due to prefetch
system.cpu.dstage2_mmu.stage2_tlb.domain_faults            0                       # Number of TLB faults due to domain restrictions
system.cpu.dstage2_mmu.stage2_tlb.perms_faults            0                       # Number of TLB faults due to permissions restrictions
system.cpu.dstage2_mmu.stage2_tlb.read_accesses            0                       # DTB read accesses
system.cpu.dstage2_mmu.stage2_tlb.write_accesses            0                       # DTB write accesses
system.cpu.dstage2_mmu.stage2_tlb.inst_accesses            0                       # ITB inst accesses
system.cpu.dstage2_mmu.stage2_tlb.hits              0                       # DTB hits
system.cpu.dstage2_mmu.stage2_tlb.misses            0                       # DTB misses
system.cpu.dstage2_mmu.stage2_tlb.accesses            0                       # DTB accesses
system.cpu.dtb.walker.pwrStateResidencyTicks::UNDEFINED  21717871500                       # Cumulative time (in ticks) in various power states
system.cpu.dtb.walker.walks                         0                       # Table walker walks requested
system.cpu.dtb.walker.walkRequestOrigin_Requested::Data            0                       # Table walker requests started/completed, data/inst
system.cpu.dtb.walker.walkRequestOrigin_Requested::Inst            0                       # Table walker requests started/completed, data/inst
system.cpu.dtb.walker.walkRequestOrigin_Requested::total            0                       # Table walker requests started/completed, data/inst
system.cpu.dtb.walker.walkRequestOrigin_Completed::Data            0                       # Table walker requests started/completed, data/inst
system.cpu.dtb.walker.walkRequestOrigin_Completed::Inst            0                       # Table walker requests started/completed, data/inst
system.cpu.dtb.walker.walkRequestOrigin_Completed::total            0                       # Table walker requests started/completed, data/inst
system.cpu.dtb.walker.walkRequestOrigin::total            0                       # Table walker requests started/completed, data/inst
system.cpu.dtb.inst_hits                            0                       # ITB inst hits
system.cpu.dtb.inst_misses                          0                       # ITB inst misses
system.cpu.dtb.read_hits                            0                       # DTB read hits
system.cpu.dtb.read_misses                          0                       # DTB read misses
system.cpu.dtb.write_hits                           0                       # DTB write hits
system.cpu.dtb.write_misses                         0                       # DTB write misses
system.cpu.dtb.flush_tlb                            0                       # Number of times complete TLB was flushed
system.cpu.dtb.flush_tlb_mva                        0                       # Number of times TLB was flushed by MVA
system.cpu.dtb.flush_tlb_mva_asid                   0                       # Number of times TLB was flushed by MVA & ASID
system.cpu.dtb.flush_tlb_asid                       0                       # Number of times TLB was flushed by ASID
system.cpu.dtb.flush_entries                        0                       # Number of entries that have been flushed from TLB
system.cpu.dtb.align_faults                         0                       # Number of TLB faults due to alignment restrictions
system.cpu.dtb.prefetch_faults                      0                       # Number of TLB faults due to prefetch
system.cpu.dtb.domain_faults                        0                       # Number of TLB faults due to domain restrictions
system.cpu.dtb.perms_faults                         0                       # Number of TLB faults due to permissions restrictions
system.cpu.dtb.read_accesses                        0                       # DTB read accesses
system.cpu.dtb.write_accesses                       0                       # DTB write accesses
system.cpu.dtb.inst_accesses                        0                       # ITB inst accesses
system.cpu.dtb.hits                                 0                       # DTB hits
system.cpu.dtb.misses                               0                       # DTB misses
system.cpu.dtb.accesses                             0                       # DTB accesses
system.cpu.istage2_mmu.stage2_tlb.walker.pwrStateResidencyTicks::UNDEFINED  21717871500                       # Cumulative time (in ticks) in various power states
system.cpu.istage2_mmu.stage2_tlb.walker.walks            0                       # Table walker walks requested
system.cpu.istage2_mmu.stage2_tlb.walker.walkRequestOrigin_Requested::Data            0                       # Table walker requests started/completed, data/inst
system.cpu.istage2_mmu.stage2_tlb.walker.walkRequestOrigin_Requested::Inst            0                       # Table walker requests started/completed, data/inst
system.cpu.istage2_mmu.stage2_tlb.walker.walkRequestOrigin_Requested::total            0                       # Table walker requests started/completed, data/inst
system.cpu.istage2_mmu.stage2_tlb.walker.walkRequestOrigin_Completed::Data            0                       # Table walker requests started/completed, data/inst
system.cpu.istage2_mmu.stage2_tlb.walker.walkRequestOrigin_Completed::Inst            0                       # Table walker requests started/completed, data/inst
system.cpu.istage2_mmu.stage2_tlb.walker.walkRequestOrigin_Completed::total            0                       # Table walker requests started/completed, data/inst
system.cpu.istage2_mmu.stage2_tlb.walker.walkRequestOrigin::total            0                       # Table walker requests started/completed, data/inst
system.cpu.istage2_mmu.stage2_tlb.inst_hits            0                       # ITB inst hits
system.cpu.istage2_mmu.stage2_tlb.inst_misses            0                       # ITB inst misses
system.cpu.istage2_mmu.stage2_tlb.read_hits            0                       # DTB read hits
system.cpu.istage2_mmu.stage2_tlb.read_misses            0                       # DTB read misses
system.cpu.istage2_mmu.stage2_tlb.write_hits            0                       # DTB write hits
system.cpu.istage2_mmu.stage2_tlb.write_misses            0                       # DTB write misses
system.cpu.istage2_mmu.stage2_tlb.flush_tlb            0                       # Number of times complete TLB was flushed
system.cpu.istage2_mmu.stage2_tlb.flush_tlb_mva            0                       # Number of times TLB was flushed by MVA
system.cpu.istage2_mmu.stage2_tlb.flush_tlb_mva_asid            0                       # Number of times TLB was flushed by MVA & ASID
system.cpu.istage2_mmu.stage2_tlb.flush_tlb_asid            0                       # Number of times TLB was flushed by ASID
system.cpu.istage2_mmu.stage2_tlb.flush_entries            0                       # Number of entries that have been flushed from TLB
system.cpu.istage2_mmu.stage2_tlb.align_faults            0                       # Number of TLB faults due to alignment restrictions
system.cpu.istage2_mmu.stage2_tlb.prefetch_faults            0                       # Number of TLB faults due to prefetch
system.cpu.istage2_mmu.stage2_tlb.domain_faults            0                       # Number of TLB faults due to domain restrictions
system.cpu.istage2_mmu.stage2_tlb.perms_faults            0                       # Number of TLB faults due to permissions restrictions
system.cpu.istage2_mmu.stage2_tlb.read_accesses            0                       # DTB read accesses
system.cpu.istage2_mmu.stage2_tlb.write_accesses            0                       # DTB write accesses
system.cpu.istage2_mmu.stage2_tlb.inst_accesses            0                       # ITB inst accesses
system.cpu.istage2_mmu.stage2_tlb.hits              0                       # DTB hits
system.cpu.istage2_mmu.stage2_tlb.misses            0                       # DTB misses
system.cpu.istage2_mmu.stage2_tlb.accesses            0                       # DTB accesses
system.cpu.itb.walker.pwrStateResidencyTicks::UNDEFINED  21717871500                       # Cumulative time (in ticks) in various power states
system.cpu.itb.walker.walks                         0                       # Table walker walks requested
system.cpu.itb.walker.walkRequestOrigin_Requested::Data            0                       # Table walker requests started/completed, data/inst
system.cpu.itb.walker.walkRequestOrigin_Requested::Inst            0                       # Table walker requests started/completed, data/inst
system.cpu.itb.walker.walkRequestOrigin_Requested::total            0                       # Table walker requests started/completed, data/inst
system.cpu.itb.walker.walkRequestOrigin_Completed::Data            0                       # Table walker requests started/completed, data/inst
system.cpu.itb.walker.walkRequestOrigin_Completed::Inst            0                       # Table walker requests started/completed, data/inst
system.cpu.itb.walker.walkRequestOrigin_Completed::total            0                       # Table walker requests started/completed, data/inst
system.cpu.itb.walker.walkRequestOrigin::total            0                       # Table walker requests started/completed, data/inst
system.cpu.itb.inst_hits                            0                       # ITB inst hits
system.cpu.itb.inst_misses                          0                       # ITB inst misses
system.cpu.itb.read_hits                            0                       # DTB read hits
system.cpu.itb.read_misses                          0                       # DTB read misses
system.cpu.itb.write_hits                           0                       # DTB write hits
system.cpu.itb.write_misses                         0                       # DTB write misses
system.cpu.itb.flush_tlb                            0                       # Number of times complete TLB was flushed
system.cpu.itb.flush_tlb_mva                        0                       # Number of times TLB was flushed by MVA
system.cpu.itb.flush_tlb_mva_asid                   0                       # Number of times TLB was flushed by MVA & ASID
system.cpu.itb.flush_tlb_asid                       0                       # Number of times TLB was flushed by ASID
system.cpu.itb.flush_entries                        0                       # Number of entries that have been flushed from TLB
system.cpu.itb.align_faults                         0                       # Number of TLB faults due to alignment restrictions
system.cpu.itb.prefetch_faults                      0                       # Number of TLB faults due to prefetch
system.cpu.itb.domain_faults                        0                       # Number of TLB faults due to domain restrictions
system.cpu.itb.perms_faults                         0                       # Number of TLB faults due to permissions restrictions
system.cpu.itb.read_accesses                        0                       # DTB read accesses
system.cpu.itb.write_accesses                       0                       # DTB write accesses
system.cpu.itb.inst_accesses                        0                       # ITB inst accesses
system.cpu.itb.hits                                 0                       # DTB hits
system.cpu.itb.misses                               0                       # DTB misses
system.cpu.itb.accesses                             0                       # DTB accesses
system.cpu.workload.numSyscalls                     6                       # Number of system calls
system.cpu.pwrStateResidencyTicks::ON     21717871500                       # Cumulative time (in ticks) in various power states
system.cpu.numCycles                         43365180                       # number of cpu cycles simulated
system.cpu.numWorkItemsStarted                      0                       # number of work items this cpu started
system.cpu.numWorkItemsCompleted                    0                       # number of work items this cpu completed
system.cpu.fetch.icacheStallCycles            9661191                       # Number of cycles fetch is stalled on an Icache miss
system.cpu.fetch.Insts                      100905802                       # Number of instructions fetch has processed
system.cpu.fetch.Branches                    21114575                       # Number of branches that fetch encountered
system.cpu.fetch.predictedBranches           13441954                       # Number of branches that fetch has predicted taken
system.cpu.fetch.Cycles                      33384944                       # Number of cycles fetch has run and was not squashing or blocked
system.cpu.fetch.SquashCycles                  629190                       # Number of cycles fetch has spent squashing
system.cpu.fetch.MiscStallCycles                   15                       # Number of cycles fetch has spent waiting on interrupts, or bad addresses, or out of MSHRs
system.cpu.fetch.PendingTrapStallCycles            65                       # Number of stall cycles due to pending traps
system.cpu.fetch.CacheLines                   9424050                       # Number of cache lines fetched
system.cpu.fetch.IcacheSquashes                 78800                       # Number of outstanding Icache misses that were squashed
system.cpu.fetch.rateDist::samples           43360810                       # Number of instructions fetched each cycle (Total)
system.cpu.fetch.rateDist::mean              2.561623                       # Number of instructions fetched each cycle (Total)
system.cpu.fetch.rateDist::stdev             3.104152                       # Number of instructions fetched each cycle (Total)
system.cpu.fetch.rateDist::underflows               0      0.00%      0.00% # Number of instructions fetched each cycle (Total)
system.cpu.fetch.rateDist::0                 20506731     47.29%     47.29% # Number of instructions fetched each cycle (Total)
system.cpu.fetch.rateDist::1                  2014777      4.65%     51.94% # Number of instructions fetched each cycle (Total)
system.cpu.fetch.rateDist::2                  6098959     14.07%     66.01% # Number of instructions fetched each cycle (Total)
system.cpu.fetch.rateDist::3                   479198      1.11%     67.11% # Number of instructions fetched each cycle (Total)
system.cpu.fetch.rateDist::4                  2604771      6.01%     73.12% # Number of instructions fetched each cycle (Total)
system.cpu.fetch.rateDist::5                   367491      0.85%     73.97% # Number of instructions fetched each cycle (Total)
system.cpu.fetch.rateDist::6                  2713182      6.26%     80.22% # Number of instructions fetched each cycle (Total)
system.cpu.fetch.rateDist::7                  1717488      3.96%     84.18% # Number of instructions fetched each cycle (Total)
system.cpu.fetch.rateDist::8                  6858213     15.82%    100.00% # Number of instructions fetched each cycle (Total)
system.cpu.fetch.rateDist::overflows                0      0.00%    100.00% # Number of instructions fetched each cycle (Total)
system.cpu.fetch.rateDist::min_value                0                       # Number of instructions fetched each cycle (Total)
system.cpu.fetch.rateDist::max_value                8                       # Number of instructions fetched each cycle (Total)
system.cpu.fetch.rateDist::total             43360810                       # Number of instructions fetched each cycle (Total)
system.cpu.fetch.branchRate                  0.486902                       # Number of branch fetches per cycle
system.cpu.fetch.rate                        2.326885                       # Number of inst fetches per cycle
system.cpu.decode.IdleCycles                  7574735                       # Number of cycles decode is idle
system.cpu.decode.BlockedCycles              15015965                       # Number of cycles decode is blocked
system.cpu.decode.RunCycles                  18696764                       # Number of cycles decode is running
system.cpu.decode.UnblockCycles               1760761                       # Number of cycles decode is unblocking
system.cpu.decode.SquashCycles                 312585                       # Number of cycles decode is squashing
system.cpu.decode.BranchResolved             12819936                       # Number of times decode resolved a branch
system.cpu.decode.BranchMispred                  2058                       # Number of times decode detected a branch misprediction
system.cpu.decode.DecodedInsts              109647962                       # Number of instructions handled by decode
system.cpu.decode.SquashedInsts                 15803                       # Number of squashed instructions handled by decode
system.cpu.rename.SquashCycles                 312585                       # Number of cycles rename is squashing
system.cpu.rename.IdleCycles                  8378252                       # Number of cycles rename is idle
system.cpu.rename.BlockCycles                 6698229                       # Number of cycles rename is blocking
system.cpu.rename.serializeStallCycles         211703                       # count of cycles rename stalled for serializing inst
system.cpu.rename.RunCycles                  19504251                       # Number of cycles rename is running
system.cpu.rename.UnblockCycles               8255790                       # Number of cycles rename is unblocking
system.cpu.rename.RenamedInsts              108527474                       # Number of instructions processed by rename
system.cpu.rename.IQFullEvents                2347419                       # Number of times rename has blocked due to IQ full
system.cpu.rename.LQFullEvents                2461286                       # Number of times rename has blocked due to LQ full
system.cpu.rename.SQFullEvents                3310954                       # Number of times rename has blocked due to SQ full
system.cpu.rename.RenamedOperands           117684312                       # Number of destination operands rename has renamed
system.cpu.rename.RenameLookups             484846386                       # Number of register rename lookups that rename has made
system.cpu.rename.int_rename_lookups        109789441                       # Number of integer rename lookups
system.cpu.rename.CommittedMaps             104969990                       # Number of HB maps that are committed
system.cpu.rename.UndoneMaps                 12714310                       # Number of HB maps that are undone due to squashing
system.cpu.rename.serializingInsts              10645                       # count of serializing insts renamed
system.cpu.rename.tempSerializingInsts          10652                       # count of temporary serializing insts renamed
system.cpu.rename.skidInsts                   7783783                       # count of insts added to the skid buffer
system.cpu.memDep0.insertedLoads             37513460                       # Number of loads inserted to the mem dependence unit.
system.cpu.memDep0.insertedStores             7164338                       # Number of stores inserted to the mem dependence unit.
system.cpu.memDep0.conflictingLoads           6573550                       # Number of conflicting loads.
system.cpu.memDep0.conflictingStores           679197                       # Number of conflicting stores.
system.cpu.iq.iqInstsAdded                  106404506                       # Number of instructions added to the IQ (excludes non-spec)
system.cpu.iq.iqNonSpecInstsAdded               16467                       # Number of non-speculative instructions added to the IQ
system.cpu.iq.iqInstsIssued                 102929554                       # Number of instructions issued
system.cpu.iq.iqSquashedInstsIssued             12571                       # Number of squashed instructions issued
system.cpu.iq.iqSquashedInstsExamined         9747009                       # Number of squashed instructions iterated over during squash; mainly for profiling
system.cpu.iq.iqSquashedOperandsExamined     22342708                       # Number of squashed operands that are examined and possibly removed from graph
system.cpu.iq.iqSquashedNonSpecRemoved            956                       # Number of squashed non-spec instructions that were removed
system.cpu.iq.issued_per_cycle::samples      43360810                       # Number of insts issued each cycle
system.cpu.iq.issued_per_cycle::mean         2.373792                       # Number of insts issued each cycle
system.cpu.iq.issued_per_cycle::stdev        2.129020                       # Number of insts issued each cycle
system.cpu.iq.issued_per_cycle::underflows            0      0.00%      0.00% # Number of insts issued each cycle
system.cpu.iq.issued_per_cycle::0            12516576     28.87%     28.87% # Number of insts issued each cycle
system.cpu.iq.issued_per_cycle::1             5175172     11.94%     40.80% # Number of insts issued each cycle
system.cpu.iq.issued_per_cycle::2             7232789     16.68%     57.48% # Number of insts issued each cycle
system.cpu.iq.issued_per_cycle::3             4840021     11.16%     68.64% # Number of insts issued each cycle
system.cpu.iq.issued_per_cycle::4             5201122     11.99%     80.64% # Number of insts issued each cycle
system.cpu.iq.issued_per_cycle::5             4107498      9.47%     90.11% # Number of insts issued each cycle
system.cpu.iq.issued_per_cycle::6             3005063      6.93%     97.04% # Number of insts issued each cycle
system.cpu.iq.issued_per_cycle::7              864167      1.99%     99.04% # Number of insts issued each cycle
system.cpu.iq.issued_per_cycle::8              418402      0.96%    100.00% # Number of insts issued each cycle
system.cpu.iq.issued_per_cycle::overflows            0      0.00%    100.00% # Number of insts issued each cycle
system.cpu.iq.issued_per_cycle::min_value            0                       # Number of insts issued each cycle
system.cpu.iq.issued_per_cycle::max_value            8                       # Number of insts issued each cycle
system.cpu.iq.issued_per_cycle::total        43360810                       # Number of insts issued each cycle
system.cpu.iq.fu_full::No_OpClass                   0      0.00%      0.00% # attempts to use FU when none available
system.cpu.iq.fu_full::IntAlu                  770232     35.25%     35.25% # attempts to use FU when none available
system.cpu.iq.fu_full::IntMult                      0      0.00%     35.25% # attempts to use FU when none available
system.cpu.iq.fu_full::IntDiv                       0      0.00%     35.25% # attempts to use FU when none available
system.cpu.iq.fu_full::FloatAdd                     0      0.00%     35.25% # attempts to use FU when none available
system.cpu.iq.fu_full::FloatCmp                     0      0.00%     35.25% # attempts to use FU when none available
system.cpu.iq.fu_full::FloatCvt                     0      0.00%     35.25% # attempts to use FU when none available
system.cpu.iq.fu_full::FloatMult                    0      0.00%     35.25% # attempts to use FU when none available
system.cpu.iq.fu_full::FloatMultAcc                 0      0.00%     35.25% # attempts to use FU when none available
system.cpu.iq.fu_full::FloatDiv                     0      0.00%     35.25% # attempts to use FU when none available
system.cpu.iq.fu_full::FloatMisc                    0      0.00%     35.25% # attempts to use FU when none available
system.cpu.iq.fu_full::FloatSqrt                    0      0.00%     35.25% # attempts to use FU when none available
system.cpu.iq.fu_full::SimdAdd                      0      0.00%     35.25% # attempts to use FU when none available
system.cpu.iq.fu_full::SimdAddAcc                   0      0.00%     35.25% # attempts to use FU when none available
system.cpu.iq.fu_full::SimdAlu                      0      0.00%     35.25% # attempts to use FU when none available
system.cpu.iq.fu_full::SimdCmp                      0      0.00%     35.25% # attempts to use FU when none available
system.cpu.iq.fu_full::SimdCvt                      0      0.00%     35.25% # attempts to use FU when none available
system.cpu.iq.fu_full::SimdMisc                     0      0.00%     35.25% # attempts to use FU when none available
system.cpu.iq.fu_full::SimdMult                     0      0.00%     35.25% # attempts to use FU when none available
system.cpu.iq.fu_full::SimdMultAcc                  0      0.00%     35.25% # attempts to use FU when none available
system.cpu.iq.fu_full::SimdShift                    0      0.00%     35.25% # attempts to use FU when none available
system.cpu.iq.fu_full::SimdShiftAcc                 0      0.00%     35.25% # attempts to use FU when none available
system.cpu.iq.fu_full::SimdSqrt                     0      0.00%     35.25% # attempts to use FU when none available
system.cpu.iq.fu_full::SimdFloatAdd                 0      0.00%     35.25% # attempts to use FU when none available
system.cpu.iq.fu_full::SimdFloatAlu                 0      0.00%     35.25% # attempts to use FU when none available
system.cpu.iq.fu_full::SimdFloatCmp                 0      0.00%     35.25% # attempts to use FU when none available
system.cpu.iq.fu_full::SimdFloatCvt                 0      0.00%     35.25% # attempts to use FU when none available
system.cpu.iq.fu_full::SimdFloatDiv                 0      0.00%     35.25% # attempts to use FU when none available
system.cpu.iq.fu_full::SimdFloatMisc                0      0.00%     35.25% # attempts to use FU when none available
system.cpu.iq.fu_full::SimdFloatMult                0      0.00%     35.25% # attempts to use FU when none available
system.cpu.iq.fu_full::SimdFloatMultAcc             0      0.00%     35.25% # attempts to use FU when none available
system.cpu.iq.fu_full::SimdFloatSqrt                0      0.00%     35.25% # attempts to use FU when none available
system.cpu.iq.fu_full::MemRead                1255726     57.48%     92.73% # attempts to use FU when none available
system.cpu.iq.fu_full::MemWrite                158821      7.27%    100.00% # attempts to use FU when none available
system.cpu.iq.fu_full::FloatMemRead                 0      0.00%    100.00% # attempts to use FU when none available
system.cpu.iq.fu_full::FloatMemWrite                0      0.00%    100.00% # attempts to use FU when none available
system.cpu.iq.fu_full::IprAccess                    0      0.00%    100.00% # attempts to use FU when none available
system.cpu.iq.fu_full::InstPrefetch                 0      0.00%    100.00% # attempts to use FU when none available
system.cpu.iq.FU_type_0::No_OpClass                 9      0.00%      0.00% # Type of FU issued
system.cpu.iq.FU_type_0::IntAlu              59105946     57.42%     57.42% # Type of FU issued
system.cpu.iq.FU_type_0::IntMult                 5893      0.01%     57.43% # Type of FU issued
system.cpu.iq.FU_type_0::IntDiv                     0      0.00%     57.43% # Type of FU issued
system.cpu.iq.FU_type_0::FloatAdd                   0      0.00%     57.43% # Type of FU issued
system.cpu.iq.FU_type_0::FloatCmp                   0      0.00%     57.43% # Type of FU issued
system.cpu.iq.FU_type_0::FloatCvt                   0      0.00%     57.43% # Type of FU issued
system.cpu.iq.FU_type_0::FloatMult                  0      0.00%     57.43% # Type of FU issued
system.cpu.iq.FU_type_0::FloatMultAcc               0      0.00%     57.43% # Type of FU issued
system.cpu.iq.FU_type_0::FloatDiv                   0      0.00%     57.43% # Type of FU issued
system.cpu.iq.FU_type_0::FloatMisc                  0      0.00%     57.43% # Type of FU issued
system.cpu.iq.FU_type_0::FloatSqrt                  0      0.00%     57.43% # Type of FU issued
system.cpu.iq.FU_type_0::SimdAdd                    0      0.00%     57.43% # Type of FU issued
system.cpu.iq.FU_type_0::SimdAddAcc                 0      0.00%     57.43% # Type of FU issued
system.cpu.iq.FU_type_0::SimdAlu                    0      0.00%     57.43% # Type of FU issued
system.cpu.iq.FU_type_0::SimdCmp                    0      0.00%     57.43% # Type of FU issued
system.cpu.iq.FU_type_0::SimdCvt                    0      0.00%     57.43% # Type of FU issued
system.cpu.iq.FU_type_0::SimdMisc                   0      0.00%     57.43% # Type of FU issued
system.cpu.iq.FU_type_0::SimdMult                   0      0.00%     57.43% # Type of FU issued
system.cpu.iq.FU_type_0::SimdMultAcc                0      0.00%     57.43% # Type of FU issued
system.cpu.iq.FU_type_0::SimdShift                  0      0.00%     57.43% # Type of FU issued
system.cpu.iq.FU_type_0::SimdShiftAcc               0      0.00%     57.43% # Type of FU issued
system.cpu.iq.FU_type_0::SimdSqrt                   0      0.00%     57.43% # Type of FU issued
system.cpu.iq.FU_type_0::SimdFloatAdd               0      0.00%     57.43% # Type of FU issued
system.cpu.iq.FU_type_0::SimdFloatAlu               0      0.00%     57.43% # Type of FU issued
system.cpu.iq.FU_type_0::SimdFloatCmp               0      0.00%     57.43% # Type of FU issued
system.cpu.iq.FU_type_0::SimdFloatCvt               0      0.00%     57.43% # Type of FU issued
system.cpu.iq.FU_type_0::SimdFloatDiv               0      0.00%     57.43% # Type of FU issued
system.cpu.iq.FU_type_0::SimdFloatMisc              0      0.00%     57.43% # Type of FU issued
system.cpu.iq.FU_type_0::SimdFloatMult              0      0.00%     57.43% # Type of FU issued
system.cpu.iq.FU_type_0::SimdFloatMultAcc            0      0.00%     57.43% # Type of FU issued
system.cpu.iq.FU_type_0::SimdFloatSqrt              0      0.00%     57.43% # Type of FU issued
system.cpu.iq.FU_type_0::MemRead             37055006     36.00%     93.43% # Type of FU issued
system.cpu.iq.FU_type_0::MemWrite             6762700      6.57%    100.00% # Type of FU issued
system.cpu.iq.FU_type_0::FloatMemRead               0      0.00%    100.00% # Type of FU issued
system.cpu.iq.FU_type_0::FloatMemWrite              0      0.00%    100.00% # Type of FU issued
system.cpu.iq.FU_type_0::IprAccess                  0      0.00%    100.00% # Type of FU issued
system.cpu.iq.FU_type_0::InstPrefetch               0      0.00%    100.00% # Type of FU issued
system.cpu.iq.FU_type_0::total              102929554                       # Type of FU issued
system.cpu.iq.rate                           2.373553                       # Inst issue rate
system.cpu.iq.fu_busy_cnt                     2184779                       # FU busy when requested
system.cpu.iq.fu_busy_rate                   0.021226                       # FU busy rate (busy events/executed inst)
system.cpu.iq.int_inst_queue_reads          251417268                       # Number of integer instruction queue reads
system.cpu.iq.int_inst_queue_writes         116169857                       # Number of integer instruction queue writes
system.cpu.iq.int_inst_queue_wakeup_accesses    101400885                       # Number of integer instruction queue wakeup accesses
system.cpu.iq.fp_inst_queue_reads                   0                       # Number of floating instruction queue reads
system.cpu.iq.fp_inst_queue_writes                  0                       # Number of floating instruction queue writes
system.cpu.iq.fp_inst_queue_wakeup_accesses            0                       # Number of floating instruction queue wakeup accesses
system.cpu.iq.vec_inst_queue_reads                  0                       # Number of vector instruction queue reads
system.cpu.iq.vec_inst_queue_writes                 0                       # Number of vector instruction queue writes
system.cpu.iq.vec_inst_queue_wakeup_accesses            0                       # Number of vector instruction queue wakeup accesses
system.cpu.iq.int_alu_accesses              105114324                       # Number of integer alu accesses
system.cpu.iq.fp_alu_accesses                       0                       # Number of floating point alu accesses
system.cpu.iq.vec_alu_accesses                      0                       # Number of vector alu accesses
system.cpu.iew.lsq.thread0.forwLoads         11118266                       # Number of loads that had data forwarded from stores
system.cpu.iew.lsq.thread0.invAddrLoads             0                       # Number of loads ignored due to an invalid address
system.cpu.iew.lsq.thread0.squashedLoads      4187400                       # Number of loads squashed
system.cpu.iew.lsq.thread0.ignoredResponses       121843                       # Number of memory responses ignored because the instruction is squashed
system.cpu.iew.lsq.thread0.memOrderViolation         1971                       # Number of memory ordering violations
system.cpu.iew.lsq.thread0.squashedStores       671702                       # Number of stores squashed
system.cpu.iew.lsq.thread0.invAddrSwpfs             0                       # Number of software prefetches ignored due to an invalid address
system.cpu.iew.lsq.thread0.blockedLoads             0                       # Number of blocked loads due to partial load-store forwarding
system.cpu.iew.lsq.thread0.rescheduledLoads       124865                       # Number of loads that were rescheduled
system.cpu.iew.lsq.thread0.cacheBlocked             0                       # Number of times an access to memory failed due to the cache being blocked
system.cpu.iew.iewIdleCycles                        0                       # Number of cycles IEW is idle
system.cpu.iew.iewSquashCycles                 312585                       # Number of cycles IEW is squashing
system.cpu.iew.iewBlockCycles                 5846834                       # Number of cycles IEW is blocking
system.cpu.iew.iewUnblockCycles                100544                       # Number of cycles IEW is unblocking
system.cpu.iew.iewDispatchedInsts           106420973                       # Number of instructions dispatched to IQ
system.cpu.iew.iewDispSquashedInsts             62560                       # Number of squashed instructions skipped by dispatch
system.cpu.iew.iewDispLoadInsts              37513460                       # Number of dispatched load instructions
system.cpu.iew.iewDispStoreInsts              7164338                       # Number of dispatched store instructions
system.cpu.iew.iewDispNonSpecInsts               8715                       # Number of dispatched non-speculative instructions
system.cpu.iew.iewIQFullEvents                   2841                       # Number of times the IQ has become full, causing a stall
system.cpu.iew.iewLSQFullEvents                 71045                       # Number of times the LSQ has become full, causing a stall
system.cpu.iew.memOrderViolationEvents           1971                       # Number of memory order violations
system.cpu.iew.predictedTakenIncorrect         180568                       # Number of branches that were predicted taken incorrectly
system.cpu.iew.predictedNotTakenIncorrect       222518                       # Number of branches that were predicted not taken incorrectly
system.cpu.iew.branchMispredicts               403086                       # Number of branch mispredicts detected at execute
system.cpu.iew.iewExecutedInsts             102407848                       # Number of executed instructions
system.cpu.iew.iewExecLoadInsts              36621514                       # Number of load instructions executed
system.cpu.iew.iewExecSquashedInsts            521706                       # Number of squashed instructions skipped in execute
system.cpu.iew.exec_swp                             0                       # number of swp insts executed
system.cpu.iew.exec_nop                             0                       # number of nop insts executed
system.cpu.iew.exec_refs                     43370792                       # number of memory reference insts executed
system.cpu.iew.exec_branches                 19302892                       # Number of branches executed
system.cpu.iew.exec_stores                    6749278                       # Number of stores executed
system.cpu.iew.exec_rate                     2.361522                       # Inst execution rate
system.cpu.iew.wb_sent                      101775769                       # cumulative count of insts sent to commit
system.cpu.iew.wb_count                     101400885                       # cumulative count of insts written-back
system.cpu.iew.wb_producers                  69771395                       # num instructions producing a value
system.cpu.iew.wb_consumers                 100211939                       # num instructions consuming a value
system.cpu.iew.wb_rate                       2.338302                       # insts written-back per cycle
system.cpu.iew.wb_fanout                     0.696238                       # average fanout of values written-back
system.cpu.commit.commitSquashedInsts         9747050                       # The number of squashed insts skipped by commit
system.cpu.commit.commitNonSpecStalls           15511                       # The number of times commit has been forced to stall to communicate backwards
system.cpu.commit.branchMispredicts            311003                       # The number of times a branch was mispredicted
system.cpu.commit.committed_per_cycle::samples     41939715                       # Number of insts commited each cycle
system.cpu.commit.committed_per_cycle::mean     2.305070                       # Number of insts commited each cycle
system.cpu.commit.committed_per_cycle::stdev     2.799805                       # Number of insts commited each cycle
system.cpu.commit.committed_per_cycle::underflows            0      0.00%      0.00% # Number of insts commited each cycle
system.cpu.commit.committed_per_cycle::0     15012864     35.80%     35.80% # Number of insts commited each cycle
system.cpu.commit.committed_per_cycle::1     10896476     25.98%     61.78% # Number of insts commited each cycle
[...]
system.l2.demand_accesses::total                69873                       # number of demand (read+write) accesses
system.l2.overall_accesses::.cpu.inst            2089                       # number of overall (read+write) accesses
system.l2.overall_accesses::.cpu.data           67784                       # number of overall (read+write) accesses
system.l2.overall_accesses::total               69873                       # number of overall (read+write) accesses
system.l2.ReadExReq_miss_rate::.cpu.data     0.998814                       # miss rate for ReadExReq accesses
system.l2.ReadExReq_miss_rate::total         0.998814                       # miss rate for ReadExReq accesses
system.l2.ReadCleanReq_miss_rate::.cpu.inst     0.053135                       # miss rate for ReadCleanReq accesses
system.l2.ReadCleanReq_miss_rate::total      0.053135                       # miss rate for ReadCleanReq accesses
system.l2.ReadSharedReq_miss_rate::.cpu.data     0.989930                       # miss rate for ReadSharedReq accesses
system.l2.ReadSharedReq_miss_rate::total     0.989930                       # miss rate for ReadSharedReq accesses
system.l2.demand_miss_rate::.cpu.inst        0.053135                       # miss rate for demand accesses
system.l2.demand_miss_rate::.cpu.data        0.994571                       # miss rate for demand accesses
system.l2.demand_miss_rate::total            0.966425                       # miss rate for demand accesses
system.l2.overall_miss_rate::.cpu.inst       0.053135                       # miss rate for overall accesses
system.l2.overall_miss_rate::.cpu.data       0.994571                       # miss rate for overall accesses
system.l2.overall_miss_rate::total           0.966425                       # miss rate for overall accesses
system.l2.ReadExReq_avg_miss_latency::.cpu.data 91381.336764                       # average ReadExReq miss latency
system.l2.ReadExReq_avg_miss_latency::total 91381.336764                       # average ReadExReq miss latency
system.l2.ReadCleanReq_avg_miss_latency::.cpu.inst 87270.270270                       # average ReadCleanReq miss latency
system.l2.ReadCleanReq_avg_miss_latency::total 87270.270270                       # average ReadCleanReq miss latency
system.l2.ReadSharedReq_avg_miss_latency::.cpu.data 83996.614348                       # average ReadSharedReq miss latency
system.l2.ReadSharedReq_avg_miss_latency::total 83996.614348                       # average ReadSharedReq miss latency
system.l2.demand_avg_miss_latency::.cpu.inst 87270.270270                       # average overall miss latency
system.l2.demand_avg_miss_latency::.cpu.data 87870.920850                       # average overall miss latency
system.l2.demand_avg_miss_latency::total 87869.933508                       # average overall miss latency
system.l2.overall_avg_miss_latency::.cpu.inst 87270.270270                       # average overall miss latency
system.l2.overall_avg_miss_latency::.cpu.data 87870.920850                       # average overall miss latency
system.l2.overall_avg_miss_latency::total 87869.933508                       # average overall miss latency
system.l2.blocked_cycles::no_mshrs                  0                       # number of cycles access was blocked
system.l2.blocked_cycles::no_targets                0                       # number of cycles access was blocked
system.l2.blocked::no_mshrs                         0                       # number of cycles access was blocked
system.l2.blocked::no_targets                       0                       # number of cycles access was blocked
system.l2.avg_blocked_cycles::no_mshrs            nan                       # average number of cycles each access was blocked
system.l2.avg_blocked_cycles::no_targets          nan                       # average number of cycles each access was blocked
system.l2.writebacks::.writebacks               34813                       # number of writebacks
system.l2.writebacks::total                     34813                       # number of writebacks
system.l2.ReadSharedReq_mshr_hits::.cpu.data            3                       # number of ReadSharedReq MSHR hits
system.l2.ReadSharedReq_mshr_hits::total            3                       # number of ReadSharedReq MSHR hits
system.l2.demand_mshr_hits::.cpu.data               3                       # number of demand (read+write) MSHR hits
system.l2.demand_mshr_hits::total                   3                       # number of demand (read+write) MSHR hits
system.l2.overall_mshr_hits::.cpu.data              3                       # number of overall MSHR hits
system.l2.overall_mshr_hits::total                  3                       # number of overall MSHR hits
system.l2.CleanEvict_mshr_misses::.writebacks            3                       # number of CleanEvict MSHR misses
system.l2.CleanEvict_mshr_misses::total             3                       # number of CleanEvict MSHR misses
system.l2.ReadExReq_mshr_misses::.cpu.data        35369                       # number of ReadExReq MSHR misses
system.l2.ReadExReq_mshr_misses::total          35369                       # number of ReadExReq MSHR misses
system.l2.ReadCleanReq_mshr_misses::.cpu.inst          111                       # number of ReadCleanReq MSHR misses
system.l2.ReadCleanReq_mshr_misses::total          111                       # number of ReadCleanReq MSHR misses
system.l2.ReadSharedReq_mshr_misses::.cpu.data        32044                       # number of ReadSharedReq MSHR misses
system.l2.ReadSharedReq_mshr_misses::total        32044                       # number of ReadSharedReq MSHR misses
system.l2.demand_mshr_misses::.cpu.inst           111                       # number of demand (read+write) MSHR misses
system.l2.demand_mshr_misses::.cpu.data         67413                       # number of demand (read+write) MSHR misses
system.l2.demand_mshr_misses::total             67524                       # number of demand (read+write) MSHR misses
system.l2.overall_mshr_misses::.cpu.inst          111                       # number of overall MSHR misses
system.l2.overall_mshr_misses::.cpu.data        67413                       # number of overall MSHR misses
system.l2.overall_mshr_misses::total            67524                       # number of overall MSHR misses
system.l2.ReadExReq_mshr_miss_latency::.cpu.data   2878376500                       # number of ReadExReq MSHR miss cycles
system.l2.ReadExReq_mshr_miss_latency::total   2878376500                       # number of ReadExReq MSHR miss cycles
system.l2.ReadCleanReq_mshr_miss_latency::.cpu.inst      8577000                       # number of ReadCleanReq MSHR miss cycles
system.l2.ReadCleanReq_mshr_miss_latency::total      8577000                       # number of ReadCleanReq MSHR miss cycles
system.l2.ReadSharedReq_mshr_miss_latency::.cpu.data   2371173000                       # number of ReadSharedReq MSHR miss cycles
system.l2.ReadSharedReq_mshr_miss_latency::total   2371173000                       # number of ReadSharedReq MSHR miss cycles
system.l2.demand_mshr_miss_latency::.cpu.inst      8577000                       # number of demand (read+write) MSHR miss cycles
system.l2.demand_mshr_miss_latency::.cpu.data   5249549500                       # number of demand (read+write) MSHR miss cycles
system.l2.demand_mshr_miss_latency::total   5258126500                       # number of demand (read+write) MSHR miss cycles
system.l2.overall_mshr_miss_latency::.cpu.inst      8577000                       # number of overall MSHR miss cycles
system.l2.overall_mshr_miss_latency::.cpu.data   5249549500                       # number of overall MSHR miss cycles
system.l2.overall_mshr_miss_latency::total   5258126500                       # number of overall MSHR miss cycles
system.l2.CleanEvict_mshr_miss_rate::.writebacks          inf                       # mshr miss rate for CleanEvict accesses
system.l2.CleanEvict_mshr_miss_rate::total          inf                       # mshr miss rate for CleanEvict accesses
system.l2.ReadExReq_mshr_miss_rate::.cpu.data     0.998814                       # mshr miss rate for ReadExReq accesses
system.l2.ReadExReq_mshr_miss_rate::total     0.998814                       # mshr miss rate for ReadExReq accesses
system.l2.ReadCleanReq_mshr_miss_rate::.cpu.inst     0.053135                       # mshr miss rate for ReadCleanReq accesses
system.l2.ReadCleanReq_mshr_miss_rate::total     0.053135                       # mshr miss rate for ReadCleanReq accesses
system.l2.ReadSharedReq_mshr_miss_rate::.cpu.data     0.989837                       # mshr miss rate for ReadSharedReq accesses
system.l2.ReadSharedReq_mshr_miss_rate::total     0.989837                       # mshr miss rate for ReadSharedReq accesses
system.l2.demand_mshr_miss_rate::.cpu.inst     0.053135                       # mshr miss rate for demand accesses
system.l2.demand_mshr_miss_rate::.cpu.data     0.994527                       # mshr miss rate for demand accesses
system.l2.demand_mshr_miss_rate::total       0.966382                       # mshr miss rate for demand accesses
system.l2.overall_mshr_miss_rate::.cpu.inst     0.053135                       # mshr miss rate for overall accesses
system.l2.overall_mshr_miss_rate::.cpu.data     0.994527                       # mshr miss rate for overall accesses
system.l2.overall_mshr_miss_rate::total      0.966382                       # mshr miss rate for overall accesses
system.l2.ReadExReq_avg_mshr_miss_latency::.cpu.data 81381.336764                       # average ReadExReq mshr miss latency
system.l2.ReadExReq_avg_mshr_miss_latency::total 81381.336764                       # average ReadExReq mshr miss latency
system.l2.ReadCleanReq_avg_mshr_miss_latency::.cpu.inst 77270.270270                       # average ReadCleanReq mshr miss latency
system.l2.ReadCleanReq_avg_mshr_miss_latency::total 77270.270270                       # average ReadCleanReq mshr miss latency
system.l2.ReadSharedReq_avg_mshr_miss_latency::.cpu.data 73997.409812                       # average ReadSharedReq mshr miss latency
system.l2.ReadSharedReq_avg_mshr_miss_latency::total 73997.409812                       # average ReadSharedReq mshr miss latency
system.l2.demand_avg_mshr_miss_latency::.cpu.inst 77270.270270                       # average overall mshr miss latency
system.l2.demand_avg_mshr_miss_latency::.cpu.data 77871.471378                       # average overall mshr miss latency
system.l2.demand_avg_mshr_miss_latency::total 77870.483087                       # average overall mshr miss latency
system.l2.overall_avg_mshr_miss_latency::.cpu.inst 77270.270270                       # average overall mshr miss latency
system.l2.overall_avg_mshr_miss_latency::.cpu.data 77871.471378                       # average overall mshr miss latency
system.l2.overall_avg_mshr_miss_latency::total 77870.483087                       # average overall mshr miss latency
system.l2.replacements                          35548                       # number of replacements
system.membus.snoop_filter.tot_requests        102601                       # Total number of requests made to the snoop filter.
system.membus.snoop_filter.hit_single_requests        35080                       # Number of requests hitting in the snoop filter with a single holder of the requested data.
system.membus.snoop_filter.hit_multi_requests            0                       # Number of requests hitting in the snoop filter with multiple (>1) holders of the requested data.
system.membus.snoop_filter.tot_snoops               0                       # Total number of snoops made to the snoop filter.
system.membus.snoop_filter.hit_single_snoops            0                       # Number of snoops hitting in the snoop filter with a single holder of the requested data.
system.membus.snoop_filter.hit_multi_snoops            0                       # Number of snoops hitting in the snoop filter with multiple (>1) holders of the requested data.
system.membus.pwrStateResidencyTicks::UNDEFINED  21722470500                       # Cumulative time (in ticks) in various power states
system.membus.trans_dist::ReadResp              32155                       # Transaction distribution
system.membus.trans_dist::WritebackDirty        34813                       # Transaction distribution
system.membus.trans_dist::CleanEvict              263                       # Transaction distribution
system.membus.trans_dist::ReadExReq             35369                       # Transaction distribution
system.membus.trans_dist::ReadExResp            35369                       # Transaction distribution
system.membus.trans_dist::ReadSharedReq         32156                       # Transaction distribution
system.membus.pkt_count_system.l2.mem_side::system.mem_ctrls.port       170125                       # Packet count per connected master and slave (bytes)
system.membus.pkt_count::total                 170125                       # Packet count per connected master and slave (bytes)
system.membus.pkt_size_system.l2.mem_side::system.mem_ctrls.port      6549568                       # Cumulative packet size per connected master and slave (bytes)
system.membus.pkt_size::total                 6549568                       # Cumulative packet size per connected master and slave (bytes)
system.membus.snoops                                0                       # Total snoops (count)
system.membus.snoopTraffic                          0                       # Total snoop traffic (bytes)
system.membus.snoop_fanout::samples             67525                       # Request fanout histogram
system.membus.snoop_fanout::mean                    0                       # Request fanout histogram
system.membus.snoop_fanout::stdev                   0                       # Request fanout histogram
system.membus.snoop_fanout::underflows              0      0.00%      0.00% # Request fanout histogram
system.membus.snoop_fanout::0                   67525    100.00%    100.00% # Request fanout histogram
system.membus.snoop_fanout::1                       0      0.00%    100.00% # Request fanout histogram
system.membus.snoop_fanout::overflows               0      0.00%    100.00% # Request fanout histogram
system.membus.snoop_fanout::min_value               0                       # Request fanout histogram
system.membus.snoop_fanout::max_value               0                       # Request fanout histogram
system.membus.snoop_fanout::total               67525                       # Request fanout histogram
system.membus.reqLayer0.occupancy           254743500                       # Layer occupancy (ticks)
system.membus.reqLayer0.utilization               1.2                       # Layer utilization (%)
system.membus.respLayer1.occupancy          355526000                       # Layer occupancy (ticks)
system.membus.respLayer1.utilization              1.6                       # Layer utilization (%)
system.tol2bus.snoop_filter.tot_requests       138887                       # Total number of requests made to the snoop filter.
system.tol2bus.snoop_filter.hit_single_requests        69002                       # Number of requests hitting in the snoop filter with a single holder of the requested data.
system.tol2bus.snoop_filter.hit_multi_requests           62                       # Number of requests hitting in the snoop filter with multiple (>1) holders of the requested data.
system.tol2bus.snoop_filter.tot_snoops            475                       # Total number of snoops made to the snoop filter.
system.tol2bus.snoop_filter.hit_single_snoops          473                       # Number of snoops hitting in the snoop filter with a single holder of the requested data.
system.tol2bus.snoop_filter.hit_multi_snoops            2                       # Number of snoops hitting in the snoop filter with multiple (>1) holders of the requested data.
system.tol2bus.pwrStateResidencyTicks::UNDEFINED  21722470500                       # Cumulative time (in ticks) in various power states
system.tol2bus.trans_dist::ReadResp             34462                       # Transaction distribution
system.tol2bus.trans_dist::WritebackDirty       101476                       # Transaction distribution
system.tol2bus.trans_dist::WritebackClean         2044                       # Transaction distribution
system.tol2bus.trans_dist::CleanEvict            1042                       # Transaction distribution
system.tol2bus.trans_dist::ReadExReq            35411                       # Transaction distribution
system.tol2bus.trans_dist::ReadExResp           35411                       # Transaction distribution
system.tol2bus.trans_dist::ReadCleanReq          2089                       # Transaction distribution
system.tol2bus.trans_dist::ReadSharedReq        32373                       # Transaction distribution
system.tol2bus.pkt_count_system.cpu.icache.mem_side::system.l2.cpu_side         6222                       # Packet count per connected master and slave (bytes)
system.tol2bus.pkt_count_system.cpu.dcache.mem_side::system.l2.cpu_side       202538                       # Packet count per connected master and slave (bytes)
system.tol2bus.pkt_count::total                208760                       # Packet count per connected master and slave (bytes)
system.tol2bus.pkt_size_system.cpu.icache.mem_side::system.l2.cpu_side       264512                       # Cumulative packet size per connected master and slave (bytes)
system.tol2bus.pkt_size_system.cpu.dcache.mem_side::system.l2.cpu_side      8604608                       # Cumulative packet size per connected master and slave (bytes)
system.tol2bus.pkt_size::total                8869120                       # Cumulative packet size per connected master and slave (bytes)
system.tol2bus.snoops                           35548                       # Total snoops (count)
system.tol2bus.snoopTraffic                   2228032                       # Total snoop traffic (bytes)
system.tol2bus.snoop_fanout::samples           105421                       # Request fanout histogram
system.tol2bus.snoop_fanout::mean            0.004999                       # Request fanout histogram
system.tol2bus.snoop_fanout::stdev           0.070796                       # Request fanout histogram
system.tol2bus.snoop_fanout::underflows             0      0.00%      0.00% # Request fanout histogram
system.tol2bus.snoop_fanout::0                 104896     99.50%     99.50% # Request fanout histogram
system.tol2bus.snoop_fanout::1                    523      0.50%    100.00% # Request fanout histogram
system.tol2bus.snoop_fanout::2                      2      0.00%    100.00% # Request fanout histogram
system.tol2bus.snoop_fanout::overflows              0      0.00%    100.00% # Request fanout histogram
system.tol2bus.snoop_fanout::min_value              0                       # Request fanout histogram
system.tol2bus.snoop_fanout::max_value              2                       # Request fanout histogram
system.tol2bus.snoop_fanout::total             105421                       # Request fanout histogram
system.tol2bus.reqLayer0.occupancy          138150500                       # Layer occupancy (ticks)
system.tol2bus.reqLayer0.utilization              0.6                       # Layer utilization (%)
system.tol2bus.respLayer0.occupancy           3133500                       # Layer occupancy (ticks)
system.tol2bus.respLayer0.utilization             0.0                       # Layer utilization (%)
system.tol2bus.respLayer1.occupancy         101680990                       # Layer occupancy (ticks)
system.tol2bus.respLayer1.utilization             0.5                       # Layer utilization (%)

---------- End Simulation Statistics   ----------
