
---------- Begin Simulation Statistics ----------
sim_seconds                                  0.030372                       # Number of seconds simulated
sim_ticks                                 30371610000                       # Number of ticks simulated
final_tick                                30409417500                       # Number of ticks from beginning of simulation (restored from checkpoints and never reset)
sim_freq                                 1000000000000                       # Frequency of simulated ticks
host_inst_rate                                 176327                       # Simulator instruction rate (inst/s)
host_op_rate                                   194810                       # Simulator op (including micro ops) rate (op/s)
host_tick_rate                               61195213                       # Simulator tick rate (ticks/s)
host_mem_usage                                 817016                       # Number of bytes of host memory used
host_seconds                                   496.31                       # Real time elapsed on the host
sim_insts                                    87512087                       # Number of instructions simulated
sim_ops                                      96685734                       # Number of ops (including micro ops) simulated
system.voltage_domain.voltage                       1                       # Voltage in Volts
system.clk_domain.clock                          1000                       # Clock period in ticks
system.mem_ctrls.pwrStateResidencyTicks::UNDEFINED  30409417500                       # Cumulative time (in ticks) in various power states
system.mem_ctrls.bytes_read::.cpu.inst           5632                       # Number of bytes read from this memory
system.mem_ctrls.bytes_read::.cpu.data          84608                       # Number of bytes read from this memory
system.mem_ctrls.bytes_read::.l2.prefetcher      4232000                       # Number of bytes read from this memory
system.mem_ctrls.bytes_read::total            4322240                       # Number of bytes read from this memory
system.mem_ctrls.bytes_inst_read::.cpu.inst         5632                       # Number of instructions bytes read from this memory
system.mem_ctrls.bytes_inst_read::total          5632                       # Number of instructions bytes read from this memory
system.mem_ctrls.bytes_written::.writebacks      2219072                       # Number of bytes written to this memory
system.mem_ctrls.bytes_written::total         2219072                       # Number of bytes written to this memory
system.mem_ctrls.num_reads::.cpu.inst              88                       # Number of read requests responded to by this memory
system.mem_ctrls.num_reads::.cpu.data            1322                       # Number of read requests responded to by this memory
system.mem_ctrls.num_reads::.l2.prefetcher        66125                       # Number of read requests responded to by this memory
system.mem_ctrls.num_reads::total               67535                       # Number of read requests responded to by this memory
system.mem_ctrls.num_writes::.writebacks        34673                       # Number of write requests responded to by this memory
system.mem_ctrls.num_writes::total              34673                       # Number of write requests responded to by this memory
system.mem_ctrls.bw_read::.cpu.inst            185436                       # Total read bandwidth from this memory (bytes/s)
system.mem_ctrls.bw_read::.cpu.data           2785759                       # Total read bandwidth from this memory (bytes/s)
system.mem_ctrls.bw_read::.l2.prefetcher    139340654                       # Total read bandwidth from this memory (bytes/s)
system.mem_ctrls.bw_read::total             142311850                       # Total read bandwidth from this memory (bytes/s)
system.mem_ctrls.bw_inst_read::.cpu.inst       185436                       # Instruction read bandwidth from this memory (bytes/s)
system.mem_ctrls.bw_inst_read::total           185436                       # Instruction read bandwidth from this memory (bytes/s)
system.mem_ctrls.bw_write::.writebacks       73064023                       # Write bandwidth from this memory (bytes/s)
system.mem_ctrls.bw_write::total             73064023                       # Write bandwidth from this memory (bytes/s)
system.mem_ctrls.bw_total::.writebacks       73064023                       # Total bandwidth to/from this memory (bytes/s)
system.mem_ctrls.bw_total::.cpu.inst           185436                       # Total bandwidth to/from this memory (bytes/s)
system.mem_ctrls.bw_total::.cpu.data          2785759                       # Total bandwidth to/from this memory (bytes/s)
system.mem_ctrls.bw_total::.l2.prefetcher    139340654                       # Total bandwidth to/from this memory (bytes/s)
system.mem_ctrls.bw_total::total            215375872                       # Total bandwidth to/from this memory (bytes/s)
system.mem_ctrls.avgPriority_.writebacks::samples     34673.00                       # Average QoS priority value for accepted requests
system.mem_ctrls.avgPriority_.cpu.inst::samples        88.00                       # Average QoS priority value for accepted requests
system.mem_ctrls.avgPriority_.cpu.data::samples      1322.00                       # Average QoS priority value for accepted requests
system.mem_ctrls.avgPriority_.l2.prefetcher::samples     66125.00                       # Average QoS priority value for accepted requests
system.mem_ctrls.priorityMinLatency      0.000000018750                       # per QoS priority minimum request to response latency (s)
system.mem_ctrls.priorityMaxLatency      0.002759868500                       # per QoS priority maximum request to response latency (s)
system.mem_ctrls.numReadWriteTurnArounds         1967                       # Number of turnarounds from READ to WRITE
system.mem_ctrls.numWriteReadTurnArounds         1967                       # Number of turnarounds from WRITE to READ
system.mem_ctrls.numStayReadState              157411                       # Number of times bus staying in READ state
system.mem_ctrls.numStayWriteState              32807                       # Number of times bus staying in WRITE state
system.mem_ctrls.readReqs                       67535                       # Number of read requests accepted
system.mem_ctrls.writeReqs                      34673                       # Number of write requests accepted
system.mem_ctrls.readBursts                     67535                       # Number of DRAM read bursts, including those serviced by the write queue
system.mem_ctrls.writeBursts                    34673                       # Number of DRAM write bursts, including those merged in the write queue
system.mem_ctrls.bytesReadDRAM                4322240                       # Total number of bytes read from DRAM
system.mem_ctrls.bytesReadWrQ                       0                       # Total number of bytes read from write queue
system.mem_ctrls.bytesWritten                 2217472                       # Total number of bytes written to DRAM
system.mem_ctrls.bytesReadSys                 4322240                       # Total read bytes from the system interface side
system.mem_ctrls.bytesWrittenSys              2219072                       # Total written bytes from the system interface side
system.mem_ctrls.servicedByWrQ                      0                       # Number of DRAM read bursts serviced by the write queue
system.mem_ctrls.mergedWrBursts                     0                       # Number of DRAM write bursts merged with an existing one
system.mem_ctrls.neitherReadNorWriteReqs            0                       # Number of requests that are neither read nor write
system.mem_ctrls.perBankRdBursts::0              4269                       # Per bank write bursts
system.mem_ctrls.perBankRdBursts::1              4273                       # Per bank write bursts
system.mem_ctrls.perBankRdBursts::2              4195                       # Per bank write bursts
system.mem_ctrls.perBankRdBursts::3              4248                       # Per bank write bursts
system.mem_ctrls.perBankRdBursts::4              4225                       # Per bank write bursts
system.mem_ctrls.perBankRdBursts::5              4224                       # Per bank write bursts
system.mem_ctrls.perBankRdBursts::6              4225                       # Per bank write bursts
system.mem_ctrls.perBankRdBursts::7              4227                       # Per bank write bursts
system.mem_ctrls.perBankRdBursts::8              4231                       # Per bank write bursts
system.mem_ctrls.perBankRdBursts::9              4234                       # Per bank write bursts
system.mem_ctrls.perBankRdBursts::10             4225                       # Per bank write bursts
system.mem_ctrls.perBankRdBursts::11             4225                       # Per bank write bursts
system.mem_ctrls.perBankRdBursts::12             4231                       # Per bank write bursts
system.mem_ctrls.perBankRdBursts::13             4114                       # Per bank write bursts
system.mem_ctrls.perBankRdBursts::14             4162                       # Per bank write bursts
system.mem_ctrls.perBankRdBursts::15             4227                       # Per bank write bursts
system.mem_ctrls.perBankWrBursts::0              2177                       # Per bank write bursts
system.mem_ctrls.perBankWrBursts::1              2199                       # Per bank write bursts
system.mem_ctrls.perBankWrBursts::2              2118                       # Per bank write bursts
system.mem_ctrls.perBankWrBursts::3              2176                       # Per bank write bursts
system.mem_ctrls.perBankWrBursts::4              2176                       # Per bank write bursts
system.mem_ctrls.perBankWrBursts::5              2176                       # Per bank write bursts
system.mem_ctrls.perBankWrBursts::6              2176                       # Per bank write bursts
system.mem_ctrls.perBankWrBursts::7              2176                       # Per bank write bursts
system.mem_ctrls.perBankWrBursts::8              2176                       # Per bank write bursts
system.mem_ctrls.perBankWrBursts::9              2175                       # Per bank write bursts
system.mem_ctrls.perBankWrBursts::10             2175                       # Per bank write bursts
system.mem_ctrls.perBankWrBursts::11             2174                       # Per bank write bursts
system.mem_ctrls.perBankWrBursts::12             2174                       # Per bank write bursts
system.mem_ctrls.perBankWrBursts::13             2073                       # Per bank write bursts
system.mem_ctrls.perBankWrBursts::14             2144                       # Per bank write bursts
system.mem_ctrls.perBankWrBursts::15             2183                       # Per bank write bursts
system.mem_ctrls.numRdRetry                         0                       # Number of times read queue was full causing retry
system.mem_ctrls.numWrRetry                         0                       # Number of times write queue was full causing retry
system.mem_ctrls.totGap                   30371452000                       # Total gap between requests
system.mem_ctrls.readPktSize::0                     0                       # Read request sizes (log2)
system.mem_ctrls.readPktSize::1                     0                       # Read request sizes (log2)
system.mem_ctrls.readPktSize::2                     0                       # Read request sizes (log2)
system.mem_ctrls.readPktSize::3                     0                       # Read request sizes (log2)
system.mem_ctrls.readPktSize::4                     0                       # Read request sizes (log2)
system.mem_ctrls.readPktSize::5                     0                       # Read request sizes (log2)
system.mem_ctrls.readPktSize::6                 67535                       # Read request sizes (log2)
system.mem_ctrls.writePktSize::0                    0                       # Write request sizes (log2)
system.mem_ctrls.writePktSize::1                    0                       # Write request sizes (log2)
system.mem_ctrls.writePktSize::2                    0                       # Write request sizes (log2)
system.mem_ctrls.writePktSize::3                    0                       # Write request sizes (log2)
system.mem_ctrls.writePktSize::4                    0                       # Write request sizes (log2)
system.mem_ctrls.writePktSize::5                    0                       # Write request sizes (log2)
system.mem_ctrls.writePktSize::6                34673                       # Write request sizes (log2)
system.mem_ctrls.rdQLenPdf::0                   32736                       # What read queue length does an incoming req see
system.mem_ctrls.rdQLenPdf::1                   10865                       # What read queue length does an incoming req see
system.mem_ctrls.rdQLenPdf::2                    4363                       # What read queue length does an incoming req see
system.mem_ctrls.rdQLenPdf::3                    3948                       # What read queue length does an incoming req see
system.mem_ctrls.rdQLenPdf::4                    3835                       # What read queue length does an incoming req see
system.mem_ctrls.rdQLenPdf::5                    3606                       # What read queue length does an incoming req see
system.mem_ctrls.rdQLenPdf::6                    3158                       # What read queue length does an incoming req see
system.mem_ctrls.rdQLenPdf::7                    2535                       # What read queue length does an incoming req see
system.mem_ctrls.rdQLenPdf::8                    1807                       # What read queue length does an incoming req see
system.mem_ctrls.rdQLenPdf::9                     464                       # What read queue length does an incoming req see
system.mem_ctrls.rdQLenPdf::10                    217                       # What read queue length does an incoming req see
system.mem_ctrls.rdQLenPdf::11                      1                       # What read queue length does an incoming req see
system.mem_ctrls.rdQLenPdf::12                      0                       # What read queue length does an incoming req see
system.mem_ctrls.rdQLenPdf::13                      0                       # What read queue length does an incoming req see
system.mem_ctrls.rdQLenPdf::14                      0                       # What read queue length does an incoming req see
system.mem_ctrls.rdQLenPdf::15                      0                       # What read queue length does an incoming req see
system.mem_ctrls.rdQLenPdf::16                      0                       # What read queue length does an incoming req see
system.mem_ctrls.rdQLenPdf::17                      0                       # What read queue length does an incoming req see
system.mem_ctrls.rdQLenPdf::18                      0                       # What read queue length does an incoming req see
system.mem_ctrls.rdQLenPdf::19                      0                       # What read queue length does an incoming req see
system.mem_ctrls.rdQLenPdf::20                      0                       # What read queue length does an incoming req see
system.mem_ctrls.rdQLenPdf::21                      0                       # What read queue length does an incoming req see
system.mem_ctrls.rdQLenPdf::22                      0                       # What read queue length does an incoming req see
system.mem_ctrls.rdQLenPdf::23                      0                       # What read queue length does an incoming req see
system.mem_ctrls.rdQLenPdf::24                      0                       # What read queue length does an incoming req see
system.mem_ctrls.rdQLenPdf::25                      0                       # What read queue length does an incoming req see
system.mem_ctrls.rdQLenPdf::26                      0                       # What read queue length does an incoming req see
system.mem_ctrls.rdQLenPdf::27                      0                       # What read queue length does an incoming req see
system.mem_ctrls.rdQLenPdf::28                      0                       # What read queue length does an incoming req see
system.mem_ctrls.rdQLenPdf::29                      0                       # What read queue length does an incoming req see
system.mem_ctrls.rdQLenPdf::30                      0                       # What read queue length does an incoming req see
system.mem_ctrls.rdQLenPdf::31                      0                       # What read queue length does an incoming req see
system.mem_ctrls.wrQLenPdf::0                       1                       # What write queue length does an incoming req see
system.mem_ctrls.wrQLenPdf::1                       1                       # What write queue length does an incoming req see
system.mem_ctrls.wrQLenPdf::2                       1                       # What write queue length does an incoming req see
system.mem_ctrls.wrQLenPdf::3                       1                       # What write queue length does an incoming req see
system.mem_ctrls.wrQLenPdf::4                       1                       # What write queue length does an incoming req see
system.mem_ctrls.wrQLenPdf::5                       1                       # What write queue length does an incoming req see
system.mem_ctrls.wrQLenPdf::6                       1                       # What write queue length does an incoming req see
system.mem_ctrls.wrQLenPdf::7                       1                       # What write queue length does an incoming req see
system.mem_ctrls.wrQLenPdf::8                       1                       # What write queue length does an incoming req see
system.mem_ctrls.wrQLenPdf::9                       1                       # What write queue length does an incoming req see
system.mem_ctrls.wrQLenPdf::10                      1                       # What write queue length does an incoming req see
system.mem_ctrls.wrQLenPdf::11                      1                       # What write queue length does an incoming req see
system.mem_ctrls.wrQLenPdf::12                      1                       # What write queue length does an incoming req see
system.mem_ctrls.wrQLenPdf::13                      1                       # What write queue length does an incoming req see
system.mem_ctrls.wrQLenPdf::14                      1                       # What write queue length does an incoming req see
system.mem_ctrls.wrQLenPdf::15                   1047                       # What write queue length does an incoming req see
system.mem_ctrls.wrQLenPdf::16                   1050                       # What write queue length does an incoming req see
system.mem_ctrls.wrQLenPdf::17                   1075                       # What write queue length does an incoming req see
system.mem_ctrls.wrQLenPdf::18                   1113                       # What write queue length does an incoming req see
system.mem_ctrls.wrQLenPdf::19                   1146                       # What write queue length does an incoming req see
system.mem_ctrls.wrQLenPdf::20                   1248                       # What write queue length does an incoming req see
system.mem_ctrls.wrQLenPdf::21                   1447                       # What write queue length does an incoming req see
system.mem_ctrls.wrQLenPdf::22                   1584                       # What write queue length does an incoming req see
system.mem_ctrls.wrQLenPdf::23                   1713                       # What write queue length does an incoming req see
system.mem_ctrls.wrQLenPdf::24                   1866                       # What write queue length does an incoming req see
system.mem_ctrls.wrQLenPdf::25                   1990                       # What write queue length does an incoming req see
system.mem_ctrls.wrQLenPdf::26                   2110                       # What write queue length does an incoming req see
system.mem_ctrls.wrQLenPdf::27                   2156                       # What write queue length does an incoming req see
system.mem_ctrls.wrQLenPdf::28                   2423                       # What write queue length does an incoming req see
system.mem_ctrls.wrQLenPdf::29                   2794                       # What write queue length does an incoming req see
system.mem_ctrls.wrQLenPdf::30                   3050                       # What write queue length does an incoming req see
system.mem_ctrls.wrQLenPdf::31                   3157                       # What write queue length does an incoming req see
system.mem_ctrls.wrQLenPdf::32                   3051                       # What write queue length does an incoming req see
system.mem_ctrls.wrQLenPdf::33                    524                       # What write queue length does an incoming req see
system.mem_ctrls.wrQLenPdf::34                     53                       # What write queue length does an incoming req see
system.mem_ctrls.wrQLenPdf::35                     21                       # What write queue length does an incoming req see
system.mem_ctrls.wrQLenPdf::36                     17                       # What write queue length does an incoming req see
system.mem_ctrls.wrQLenPdf::37                     12                       # What write queue length does an incoming req see
system.mem_ctrls.wrQLenPdf::38                      5                       # What write queue length does an incoming req see
system.mem_ctrls.wrQLenPdf::39                      3                       # What write queue length does an incoming req see
system.mem_ctrls.wrQLenPdf::40                      3                       # What write queue length does an incoming req see
system.mem_ctrls.wrQLenPdf::41                      0                       # What write queue length does an incoming req see
system.mem_ctrls.wrQLenPdf::42                      0                       # What write queue length does an incoming req see
system.mem_ctrls.wrQLenPdf::43                      0                       # What write queue length does an incoming req see
system.mem_ctrls.wrQLenPdf::44                      0                       # What write queue length does an incoming req see
system.mem_ctrls.wrQLenPdf::45                      0                       # What write queue length does an incoming req see
system.mem_ctrls.wrQLenPdf::46                      0                       # What write queue length does an incoming req see
system.mem_ctrls.wrQLenPdf::47                      0                       # What write queue length does an incoming req see
system.mem_ctrls.wrQLenPdf::48                      0                       # What write queue length does an incoming req see
system.mem_ctrls.wrQLenPdf::49                      0                       # What write queue length does an incoming req see
system.mem_ctrls.wrQLenPdf::50                      0                       # What write queue length does an incoming req see
system.mem_ctrls.wrQLenPdf::51                      0                       # What write queue length does an incoming req see
system.mem_ctrls.wrQLenPdf::52                      0                       # What write queue length does an incoming req see
system.mem_ctrls.wrQLenPdf::53                      0                       # What write queue length does an incoming req see
system.mem_ctrls.wrQLenPdf::54                      0                       # What write queue length does an incoming req see
system.mem_ctrls.wrQLenPdf::55                      0                       # What write queue length does an incoming req see
system.mem_ctrls.wrQLenPdf::56                      0                       # What write queue length does an incoming req see
system.mem_ctrls.wrQLenPdf::57                      0                       # What write queue length does an incoming req see
system.mem_ctrls.wrQLenPdf::58                      0                       # What write queue length does an incoming req see
system.mem_ctrls.wrQLenPdf::59                      0                       # What write queue length does an incoming req see
system.mem_ctrls.wrQLenPdf::60                      0                       # What write queue length does an incoming req see
system.mem_ctrls.wrQLenPdf::61                      0                       # What write queue length does an incoming req see
system.mem_ctrls.wrQLenPdf::62                      0                       # What write queue length does an incoming req see
system.mem_ctrls.wrQLenPdf::63                      0                       # What write queue length does an incoming req see
system.mem_ctrls.bytesPerActivate::samples        12706                       # Bytes accessed per row activation
system.mem_ctrls.bytesPerActivate::mean    514.840863                       # Bytes accessed per row activation
system.mem_ctrls.bytesPerActivate::gmean   377.673884                       # Bytes accessed per row activation
system.mem_ctrls.bytesPerActivate::stdev   333.389320                       # Bytes accessed per row activation
system.mem_ctrls.bytesPerActivate::0-127         1425     11.22%     11.22% # Bytes accessed per row activation
system.mem_ctrls.bytesPerActivate::128-255         2072     16.31%     27.52% # Bytes accessed per row activation
system.mem_ctrls.bytesPerActivate::256-383         1129      8.89%     36.41% # Bytes accessed per row activation
system.mem_ctrls.bytesPerActivate::384-511         1269      9.99%     46.40% # Bytes accessed per row activation
system.mem_ctrls.bytesPerActivate::512-639         2756     21.69%     68.09% # Bytes accessed per row activation
system.mem_ctrls.bytesPerActivate::640-767          647      5.09%     73.18% # Bytes accessed per row activation
system.mem_ctrls.bytesPerActivate::768-895          464      3.65%     76.83% # Bytes accessed per row activation
system.mem_ctrls.bytesPerActivate::896-1023          539      4.24%     81.07% # Bytes accessed per row activation
system.mem_ctrls.bytesPerActivate::1024-1151         2405     18.93%    100.00% # Bytes accessed per row activation
system.mem_ctrls.bytesPerActivate::total        12706                       # Bytes accessed per row activation
system.mem_ctrls.rdPerTurnAround::samples         1967                       # Reads before turning the bus around for writes
system.mem_ctrls.rdPerTurnAround::mean      34.743264                       # Reads before turning the bus around for writes
system.mem_ctrls.rdPerTurnAround::gmean     16.472467                       # Reads before turning the bus around for writes
system.mem_ctrls.rdPerTurnAround::stdev    678.956596                       # Reads before turning the bus around for writes
system.mem_ctrls.rdPerTurnAround::0-1023         1965     99.90%     99.90% # Reads before turning the bus around for writes
system.mem_ctrls.rdPerTurnAround::2048-3071            1      0.05%     99.95% # Reads before turning the bus around for writes
system.mem_ctrls.rdPerTurnAround::29696-30719            1      0.05%    100.00% # Reads before turning the bus around for writes
system.mem_ctrls.rdPerTurnAround::total          1967                       # Reads before turning the bus around for writes
system.mem_ctrls.wrPerTurnAround::samples         1967                       # Writes before turning the bus around for reads
system.mem_ctrls.wrPerTurnAround::mean      17.614642                       # Writes before turning the bus around for reads
system.mem_ctrls.wrPerTurnAround::gmean     17.514852                       # Writes before turning the bus around for reads
system.mem_ctrls.wrPerTurnAround::stdev      1.988254                       # Writes before turning the bus around for reads
system.mem_ctrls.wrPerTurnAround::16              879     44.69%     44.69% # Writes before turning the bus around for reads
system.mem_ctrls.wrPerTurnAround::17                5      0.25%     44.94% # Writes before turning the bus around for reads
system.mem_ctrls.wrPerTurnAround::18              710     36.10%     81.04% # Writes before turning the bus around for reads
system.mem_ctrls.wrPerTurnAround::19              155      7.88%     88.92% # Writes before turning the bus around for reads
system.mem_ctrls.wrPerTurnAround::20               88      4.47%     93.39% # Writes before turning the bus around for reads
system.mem_ctrls.wrPerTurnAround::21               40      2.03%     95.42% # Writes before turning the bus around for reads
system.mem_ctrls.wrPerTurnAround::22               20      1.02%     96.44% # Writes before turning the bus around for reads
system.mem_ctrls.wrPerTurnAround::23               12      0.61%     97.05% # Writes before turning the bus around for reads
system.mem_ctrls.wrPerTurnAround::24               18      0.92%     97.97% # Writes before turning the bus around for reads
system.mem_ctrls.wrPerTurnAround::25               22      1.12%     99.08% # Writes before turning the bus around for reads
system.mem_ctrls.wrPerTurnAround::26               16      0.81%     99.90% # Writes before turning the bus around for reads
system.mem_ctrls.wrPerTurnAround::27                1      0.05%     99.95% # Writes before turning the bus around for reads
system.mem_ctrls.wrPerTurnAround::33                1      0.05%    100.00% # Writes before turning the bus around for reads
system.mem_ctrls.wrPerTurnAround::total          1967                       # Writes before turning the bus around for reads
system.mem_ctrls.masterReadBytes::.cpu.inst         5632                       # Per-master bytes read from memory
system.mem_ctrls.masterReadBytes::.cpu.data        84608                       # Per-master bytes read from memory
system.mem_ctrls.masterReadBytes::.l2.prefetcher      4232000                       # Per-master bytes read from memory
system.mem_ctrls.masterWriteBytes::.writebacks      2217472                       # Per-master bytes write to memory
system.mem_ctrls.masterReadRate::.cpu.inst 185436.333470632613                       # Per-master bytes read from memory rate (Bytes/sec)
system.mem_ctrls.masterReadRate::.cpu.data 2785759.464183821809                       # Per-master bytes read from memory rate (Bytes/sec)
system.mem_ctrls.masterReadRate::.l2.prefetcher 139340653.985745251179                       # Per-master bytes read from memory rate (Bytes/sec)
system.mem_ctrls.masterWriteRate::.writebacks 73011341.841937258840                       # Per-master bytes write to memory rate (Bytes/sec)
system.mem_ctrls.masterReadAccesses::.cpu.inst           88                       # Per-master read serviced memory accesses
system.mem_ctrls.masterReadAccesses::.cpu.data         1322                       # Per-master read serviced memory accesses
system.mem_ctrls.masterReadAccesses::.l2.prefetcher        66125                       # Per-master read serviced memory accesses
system.mem_ctrls.masterWriteAccesses::.writebacks        34673                       # Per-master write serviced memory accesses
system.mem_ctrls.masterReadTotalLat::.cpu.inst      2836250                       # Per-master read total memory access latency
system.mem_ctrls.masterReadTotalLat::.cpu.data    172574122                       # Per-master read total memory access latency
system.mem_ctrls.masterReadTotalLat::.l2.prefetcher   6544308323                       # Per-master read total memory access latency
system.mem_ctrls.masterWriteTotalLat::.writebacks 397739558652                       # Per-master write total memory access latency
system.mem_ctrls.masterReadAvgLat::.cpu.inst     32230.11                       # Per-master read average memory access latency
system.mem_ctrls.masterReadAvgLat::.cpu.data    130540.18                       # Per-master read average memory access latency
system.mem_ctrls.masterReadAvgLat::.l2.prefetcher     98968.75                       # Per-master read average memory access latency
system.mem_ctrls.masterWriteAvgLat::.writebacks  11471160.81                       # Per-master write average memory access latency
system.mem_ctrls.totQLat                   5453437445                       # Total ticks spent queuing
system.mem_ctrls.totMemAccLat              6719718695                       # Total ticks spent from burst creation until serviced by the DRAM
system.mem_ctrls.totBusLat                  337675000                       # Total ticks spent in databus transfers
system.mem_ctrls.avgQLat                     80749.80                       # Average queueing delay per DRAM burst
system.mem_ctrls.avgBusLat                    5000.00                       # Average bus latency per DRAM burst
system.mem_ctrls.avgMemAccLat                99499.80                       # Average memory access latency per DRAM burst
system.mem_ctrls.avgRdBW                       142.31                       # Average DRAM read bandwidth in MiByte/s
system.mem_ctrls.avgWrBW                        73.01                       # Average achieved write bandwidth in MiByte/s
system.mem_ctrls.avgRdBWSys                    142.31                       # Average system read bandwidth in MiByte/s
system.mem_ctrls.avgWrBWSys                     73.06                       # Average system write bandwidth in MiByte/s
system.mem_ctrls.peakBW                      12800.00                       # Theoretical peak bandwidth in MiByte/s
system.mem_ctrls.busUtil                         1.68                       # Data bus utilization in percentage
system.mem_ctrls.busUtilRead                     1.11                       # Data bus utilization in percentage for reads
system.mem_ctrls.busUtilWrite                    0.57                       # Data bus utilization in percentage for writes
system.mem_ctrls.avgRdQLen                       1.50                       # Average read queue length when enqueuing
system.mem_ctrls.avgWrQLen                      13.75                       # Average write queue length when enqueuing
system.mem_ctrls.readRowHits                    58797                       # Number of row buffer hits during reads
system.mem_ctrls.writeRowHits                   30685                       # Number of row buffer hits during writes
system.mem_ctrls.readRowHitRate                 87.06                       # Row buffer hit rate for reads
system.mem_ctrls.writeRowHitRate                88.50                       # Row buffer hit rate for writes
system.mem_ctrls.avgGap                     297153.37                       # Average gap between requests
system.mem_ctrls.pageHitRate                    87.55                       # Row buffer hit rate, read and write combined
system.mem_ctrls_0.actEnergy                 45688860                       # Energy for activate commands per rank (pJ)
system.mem_ctrls_0.preEnergy                 24276615                       # Energy for precharge commands per rank (pJ)
system.mem_ctrls_0.readEnergy               242588640                       # Energy for read commands per rank (pJ)
system.mem_ctrls_0.writeEnergy               90692280                       # Energy for write commands per rank (pJ)
system.mem_ctrls_0.refreshEnergy         1795978080.000000                       # Energy for refresh commands per rank (pJ)
system.mem_ctrls_0.actBackEnergy           1344526830                       # Energy for active background per rank (pJ)
system.mem_ctrls_0.preBackEnergy             93241920                       # Energy for precharge background per rank (pJ)
system.mem_ctrls_0.actPowerDownEnergy      6468290460                       # Energy for active power-down per rank (pJ)
system.mem_ctrls_0.prePowerDownEnergy      2107999200                       # Energy for precharge power-down per rank (pJ)
system.mem_ctrls_0.selfRefreshEnergy       2076840240                       # Energy for self refresh per rank (pJ)
system.mem_ctrls_0.totalEnergy            14300479485                       # Total energy per rank (pJ)
system.mem_ctrls_0.averagePower            470.850228                       # Core power per rank (mW)
system.mem_ctrls_0.totalIdleTime          27159059008                       # Total Idle time Per DRAM Rank
system.mem_ctrls_0.memoryStateTime::IDLE    170278750                       # Time in different power states
system.mem_ctrls_0.memoryStateTime::REF     759720000                       # Time in different power states
system.mem_ctrls_0.memoryStateTime::SREF   7489112500                       # Time in different power states
system.mem_ctrls_0.memoryStateTime::PRE_PDN   5489407100                       # Time in different power states
system.mem_ctrls_0.memoryStateTime::ACT    2282331742                       # Time in different power states
system.mem_ctrls_0.memoryStateTime::ACT_PDN  14180793658                       # Time in different power states
system.mem_ctrls_1.actEnergy                 45131940                       # Energy for activate commands per rank (pJ)
system.mem_ctrls_1.preEnergy                 23973015                       # Energy for precharge commands per rank (pJ)
system.mem_ctrls_1.readEnergy               240446640                       # Energy for read commands per rank (pJ)
system.mem_ctrls_1.writeEnergy               90170280                       # Energy for write commands per rank (pJ)
system.mem_ctrls_1.refreshEnergy         1774465680.000000                       # Energy for refresh commands per rank (pJ)
system.mem_ctrls_1.actBackEnergy           1272163620                       # Energy for active background per rank (pJ)
system.mem_ctrls_1.preBackEnergy             83076480                       # Energy for precharge background per rank (pJ)
system.mem_ctrls_1.actPowerDownEnergy      6504858810                       # Energy for active power-down per rank (pJ)
system.mem_ctrls_1.prePowerDownEnergy      2042665920                       # Energy for precharge power-down per rank (pJ)
system.mem_ctrls_1.selfRefreshEnergy       2120224200                       # Energy for self refresh per rank (pJ)
system.mem_ctrls_1.totalEnergy            14206634055                       # Total energy per rank (pJ)
system.mem_ctrls_1.averagePower            467.760321                       # Core power per rank (mW)
system.mem_ctrls_1.totalIdleTime          27345288482                       # Total Idle time Per DRAM Rank
system.mem_ctrls_1.memoryStateTime::IDLE    143228743                       # Time in different power states
system.mem_ctrls_1.memoryStateTime::REF     750620000                       # Time in different power states
system.mem_ctrls_1.memoryStateTime::SREF   7766260250                       # Time in different power states
system.mem_ctrls_1.memoryStateTime::PRE_PDN   5319267079                       # Time in different power states
system.mem_ctrls_1.memoryStateTime::ACT    2132648525                       # Time in different power states
system.mem_ctrls_1.memoryStateTime::ACT_PDN  14259761153                       # Time in different power states
system.pwrStateResidencyTicks::UNDEFINED  30409417500                       # Cumulative time (in ticks) in various power states
system.cpu.branchPred.lookups                22889012                       # Number of BP lookups
system.cpu.branchPred.condPredicted          18556915                       # Number of conditional branches predicted
system.cpu.branchPred.condIncorrect            341339                       # Number of conditional branches incorrect
system.cpu.branchPred.BTBLookups             14089261                       # Number of BTB lookups
system.cpu.branchPred.BTBHits                14013482                       # Number of BTB hits
system.cpu.branchPred.BTBCorrect                    0                       # Number of correct BTB predictions (this stat may not work properly.
system.cpu.branchPred.BTBHitPct             99.462151                       # BTB Hit Percentage
system.cpu.branchPred.usedRAS                  425287                       # Number of times the RAS was used to get a target.
system.cpu.branchPred.RASInCorrect              13573                       # Number of incorrect RAS predictions.
system.cpu.branchPred.indirectLookups           58821                       # Number of indirect predictor lookups.
system.cpu.branchPred.indirectHits              48887                       # Number of indirect target hits.
system.cpu.branchPred.indirectMisses             9934                       # Number of indirect misses.
system.cpu.branchPredindirectMispredicted         1996                       # Number of mispredicted indirect branches.
system.cpu_voltage_domain.voltage                   1                       # Voltage in Volts
system.cpu_clk_domain.clock                       500                       # Clock period in ticks
system.cpu.dstage2_mmu.stage2_tlb.walker.pwrStateResidencyTicks::UNDEFINED  30409417500                       # Cumulative time (in ticks) in various power states
system.cpu.dstage2_mmu.stage2_tlb.walker.walks            0                       # Table walker walks requested
system.cpu.dstage2_mmu.stage2_tlb.walker.walkRequestOrigin_Requested::Data            0                       # Table walker requests started/completed, data/inst
system.cpu.dstage2_mmu.stage2_tlb.walker.walkRequestOrigin_Requested::Inst            0                       # Table walker requests started/completed, data/inst
system.cpu.dstage2_mmu.stage2_tlb.walker.walkRequestOrigin_Requested::total            0                       # Table walker requests started/completed, data/inst
system.cpu.dstage2_mmu.stage2_tlb.walker.walkRequestOrigin_Completed::Data            0                       # Table walker requests started/completed, data/inst
system.cpu.dstage2_mmu.stage2_tlb.walker.walkRequestOrigin_Completed::Inst            0                       # Table walker requests started/completed, data/inst
system.cpu.dstage2_mmu.stage2_tlb.walker.walkRequestOrigin_Completed::total            0                       # Table walker requests started/completed, data/inst
system.cpu.dstage2_mmu.stage2_tlb.walker.walkRequestOrigin::total            0                       # Table walker requests started/completed, data/inst
system.cpu.dstage2_mmu.stage2_tlb.inst_hits            0                       # ITB inst hits
system.cpu.dstage2_mmu.stage2_tlb.inst_misses            0                       # ITB inst misses
system.cpu.dstage2_mmu.stage2_tlb.read_hits            0                       # DTB read hits
system.cpu.dstage2_mmu.stage2_tlb.read_misses            0                       # DTB read misses
system.cpu.dstage2_mmu.stage2_tlb.write_hits            0                       # DTB write hits
system.cpu.dstage2_mmu.stage2_tlb.write_misses            0                       # DTB write misses
system.cpu.dstage2_mmu.stage2_tlb.flush_tlb            0                       # Number of times complete TLB was flushed
system.cpu.dstage2_mmu.stage2_tlb.flush_tlb_mva            0                       # Number of times TLB was flushed by MVA
system.cpu.dstage2_mmu.stage2_tlb.flush_tlb_mva_asid            0                       # Number of times TLB was flushed by MVA & ASID
system.cpu.dstage2_mmu.stage2_tlb.flush_tlb_asid            0                       # Number of times TLB was flushed by ASID
system.cpu.dstage2_mmu.stage2_tlb.flush_entries            0                       # Number of entries that have been flushed from TLB
system.cpu.dstage2_mmu.stage2_tlb.align_faults            0                       # Number of TLB faults due to alignment restrictions
system.cpu.dstage2_mmu.stage2_tlb.prefetch_faults            0                       # Number of TLB faults due to prefetch
system.cpu.dstage2_mmu.stage2_tlb.domain_faults            0                       # Number of TLB faults due to domain restrictions
system.cpu.dstage2_mmu.stage2_tlb.perms_faults            0                       # Number of TLB faults due to permissions restrictions
system.cpu.dstage2_mmu.stage2_tlb.read_accesses            0                       # DTB read accesses
system.cpu.dstage2_mmu.stage2_tlb.write_accesses            0                       # DTB write accesses
system.cpu.dstage2_mmu.stage2_tlb.inst_accesses            0                       # ITB inst accesses
system.cpu.dstage2_mmu.stage2_tlb.hits              0                       # DTB hits
system.cpu.dstage2_mmu.stage2_tlb.misses            0                       # DTB misses
system.cpu.dstage2_mmu.stage2_tlb.accesses            0                       # DTB accesses
system.cpu.dtb.walker.pwrStateResidencyTicks::UNDEFINED  30409417500                       # Cumulative time (in ticks) in various power states
system.cpu.dtb.walker.walks                         0                       # Table walker walks requested
system.cpu.dtb.walker.walkRequestOrigin_Requested::Data            0                       # Table walker requests started/completed, data/inst
system.cpu.dtb.walker.walkRequestOrigin_Requested::Inst            0                       # Table walker requests started/completed, data/inst
system.cpu.dtb.walker.walkRequestOrigin_Requested::total            0                       # Table walker requests started/completed, data/inst
system.cpu.dtb.walker.walkRequestOrigin_Completed::Data            0                       # Table walker requests started/completed, data/inst
system.cpu.dtb.walker.walkRequestOrigin_Completed::Inst            0                       # Table walker requests started/completed, data/inst
system.cpu.dtb.walker.walkRequestOrigin_Completed::total            0                       # Table walker requests started/completed, data/inst
system.cpu.dtb.walker.walkRequestOrigin::total            0                       # Table walker requests started/completed, data/inst
system.cpu.dtb.inst_hits                            0                       # ITB inst hits
system.cpu.dtb.inst_misses                          0                       # ITB inst misses
system.cpu.dtb.read_hits                            0                       # DTB read hits
system.cpu.dtb.read_misses                          0                       # DTB read misses
system.cpu.dtb.write_hits                           0                       # DTB write hits
system.cpu.dtb.write_misses                         0                       # DTB write misses
system.cpu.dtb.flush_tlb                            0                       # Number of times complete TLB was flushed
system.cpu.dtb.flush_tlb_mva                        0                       # Number of times TLB was flushed by MVA
system.cpu.dtb.flush_tlb_mva_asid                   0                       # Number of times TLB was flushed by MVA & ASID
system.cpu.dtb.flush_tlb_asid                       0                       # Number of times TLB was flushed by ASID
system.cpu.dtb.flush_entries                        0                       # Number of entries that have been flushed from TLB
system.cpu.dtb.align_faults                         0                       # Number of TLB faults due to alignment restrictions
system.cpu.dtb.prefetch_faults                      0                       # Number of TLB faults due to prefetch
system.cpu.dtb.domain_faults                        0                       # Number of TLB faults due to domain restrictions
system.cpu.dtb.perms_faults                         0                       # Number of TLB faults due to permissions restrictions
system.cpu.dtb.read_accesses                        0                       # DTB read accesses
system.cpu.dtb.write_accesses                       0                       # DTB write accesses
system.cpu.dtb.inst_accesses                        0                       # ITB inst accesses
system.cpu.dtb.hits                                 0                       # DTB hits
system.cpu.dtb.misses                               0                       # DTB misses
system.cpu.dtb.accesses                             0                       # DTB accesses
system.cpu.istage2_mmu.stage2_tlb.walker.pwrStateResidencyTicks::UNDEFINED  30409417500                       # Cumulative time (in ticks) in various power states
system.cpu.istage2_mmu.stage2_tlb.walker.walks            0                       # Table walker walks requested
system.cpu.istage2_mmu.stage2_tlb.walker.walkRequestOrigin_Requested::Data            0                       # Table walker requests started/completed, data/inst
system.cpu.istage2_mmu.stage2_tlb.walker.walkRequestOrigin_Requested::Inst            0                       # Table walker requests started/completed, data/inst
system.cpu.istage2_mmu.stage2_tlb.walker.walkRequestOrigin_Requested::total            0                       # Table walker requests started/completed, data/inst
system.cpu.istage2_mmu.stage2_tlb.walker.walkRequestOrigin_Completed::Data            0                       # Table walker requests started/completed, data/inst
system.cpu.istage2_mmu.stage2_tlb.walker.walkRequestOrigin_Completed::Inst            0                       # Table walker requests started/completed, data/inst
system.cpu.istage2_mmu.stage2_tlb.walker.walkRequestOrigin_Completed::total            0                       # Table walker requests started/completed, data/inst
system.cpu.istage2_mmu.stage2_tlb.walker.walkRequestOrigin::total            0                       # Table walker requests started/completed, data/inst
system.cpu.istage2_mmu.stage2_tlb.inst_hits            0                       # ITB inst hits
system.cpu.istage2_mmu.stage2_tlb.inst_misses            0                       # ITB inst misses
system.cpu.istage2_mmu.stage2_tlb.read_hits            0                       # DTB read hits
system.cpu.istage2_mmu.stage2_tlb.read_misses            0                       # DTB read misses
system.cpu.istage2_mmu.stage2_tlb.write_hits            0                       # DTB write hits
system.cpu.istage2_mmu.stage2_tlb.write_misses            0                       # DTB write misses
system.cpu.istage2_mmu.stage2_tlb.flush_tlb            0                       # Number of times complete TLB was flushed
system.cpu.istage2_mmu.stage2_tlb.flush_tlb_mva            0                       # Number of times TLB was flushed by MVA
system.cpu.istage2_mmu.stage2_tlb.flush_tlb_mva_asid            0                       # Number of times TLB was flushed by MVA & ASID
system.cpu.istage2_mmu.stage2_tlb.flush_tlb_asid            0                       # Number of times TLB was flushed by ASID
system.cpu.istage2_mmu.stage2_tlb.flush_entries            0                       # Number of entries that have been flushed from TLB
system.cpu.istage2_mmu.stage2_tlb.align_faults            0                       # Number of TLB faults due to alignment restrictions
system.cpu.istage2_mmu.stage2_tlb.prefetch_faults            0                       # Number of TLB faults due to prefetch
system.cpu.istage2_mmu.stage2_tlb.domain_faults            0                       # Number of TLB faults due to domain restrictions
system.cpu.istage2_mmu.stage2_tlb.perms_faults            0                       # Number of TLB faults due to permissions restrictions
system.cpu.istage2_mmu.stage2_tlb.read_accesses            0                       # DTB read accesses
system.cpu.istage2_mmu.stage2_tlb.write_accesses            0                       # DTB write accesses
system.cpu.istage2_mmu.stage2_tlb.inst_accesses            0                       # ITB inst accesses
system.cpu.istage2_mmu.stage2_tlb.hits              0                       # DTB hits
system.cpu.istage2_mmu.stage2_tlb.misses            0                       # DTB misses
system.cpu.istage2_mmu.stage2_tlb.accesses            0                       # DTB accesses
system.cpu.itb.walker.pwrStateResidencyTicks::UNDEFINED  30409417500                       # Cumulative time (in ticks) in various power states
system.cpu.itb.walker.walks                         0                       # Table walker walks requested
system.cpu.itb.walker.walkRequestOrigin_Requested::Data            0                       # Table walker requests started/completed, data/inst
system.cpu.itb.walker.walkRequestOrigin_Requested::Inst            0                       # Table walker requests started/completed, data/inst
system.cpu.itb.walker.walkRequestOrigin_Requested::total            0                       # Table walker requests started/completed, data/inst
system.cpu.itb.walker.walkRequestOrigin_Completed::Data            0                       # Table walker requests started/completed, data/inst
system.cpu.itb.walker.walkRequestOrigin_Completed::Inst            0                       # Table walker requests started/completed, data/inst
system.cpu.itb.walker.walkRequestOrigin_Completed::total            0                       # Table walker requests started/completed, data/inst
system.cpu.itb.walker.walkRequestOrigin::total            0                       # Table walker requests started/completed, data/inst
system.cpu.itb.inst_hits                            0                       # ITB inst hits
system.cpu.itb.inst_misses                          0                       # ITB inst misses
system.cpu.itb.read_hits                            0                       # DTB read hits
system.cpu.itb.read_misses                          0                       # DTB read misses
system.cpu.itb.write_hits                           0                       # DTB write hits
system.cpu.itb.write_misses                         0                       # DTB write misses
system.cpu.itb.flush_tlb                            0                       # Number of times complete TLB was flushed
system.cpu.itb.flush_tlb_mva                        0                       # Number of times TLB was flushed by MVA
system.cpu.itb.flush_tlb_mva_asid                   0                       # Number of times TLB was flushed by MVA & ASID
system.cpu.itb.flush_tlb_asid                       0                       # Number of times TLB was flushed by ASID
system.cpu.itb.flush_entries                        0                       # Number of entries that have been flushed from TLB
system.cpu.itb.align_faults                         0                       # Number of TLB faults due to alignment restrictions
system.cpu.itb.prefetch_faults                      0                       # Number of TLB faults due to prefetch
system.cpu.itb.domain_faults                        0                       # Number of TLB faults due to domain restrictions
system.cpu.itb.perms_faults                         0                       # Number of TLB faults due to permissions restrictions
system.cpu.itb.read_accesses                        0                       # DTB read accesses
system.cpu.itb.write_accesses                       0                       # DTB write accesses
system.cpu.itb.inst_accesses                        0                       # ITB inst accesses
system.cpu.itb.hits                                 0                       # DTB hits
system.cpu.itb.misses                               0                       # DTB misses
system.cpu.itb.accesses                             0                       # DTB accesses
system.cpu.workload.numSyscalls                     6                       # Number of system calls
system.cpu.pwrStateResidencyTicks::ON     30409417500                       # Cumulative time (in ticks) in various power states
system.cpu.numCycles                         60743220                       # number of cpu cycles simulated
system.cpu.numWorkItemsStarted                      0                       # number of work items this cpu started
system.cpu.numWorkItemsCompleted                    0                       # number of work items this cpu completed
system.cpu.fetch.icacheStallCycles             320398                       # Number of cycles fetch is stalled on an Icache miss
system.cpu.fetch.Insts                      111416859                       # Number of instructions fetch has processed
system.cpu.fetch.Branches                    22889012                       # Number of branches that fetch encountered
system.cpu.fetch.predictedBranches           14487656                       # Number of branches that fetch has predicted taken
system.cpu.fetch.Cycles                      60074935                       # Number of cycles fetch has run and was not squashing or blocked
system.cpu.fetch.SquashCycles                  684852                       # Number of cycles fetch has spent squashing
system.cpu.fetch.MiscStallCycles                  379                       # Number of cycles fetch has spent waiting on interrupts, or bad addresses, or out of MSHRs
system.cpu.fetch.IcacheWaitRetryStallCycles          216                       # Number of stall cycles due to full MSHR
system.cpu.fetch.CacheLines                  39193561                       # Number of cache lines fetched
system.cpu.fetch.IcacheSquashes                    96                       # Number of outstanding Icache misses that were squashed
system.cpu.fetch.rateDist::samples           60738354                       # Number of instructions fetched each cycle (Total)
system.cpu.fetch.rateDist::mean              2.011861                       # Number of instructions fetched each cycle (Total)
system.cpu.fetch.rateDist::stdev             1.788415                       # Number of instructions fetched each cycle (Total)
system.cpu.fetch.rateDist::underflows               0      0.00%      0.00% # Number of instructions fetched each cycle (Total)
system.cpu.fetch.rateDist::0                 20013857     32.95%     32.95% # Number of instructions fetched each cycle (Total)
system.cpu.fetch.rateDist::1                  7633516     12.57%     45.52% # Number of instructions fetched each cycle (Total)
system.cpu.fetch.rateDist::2                  8066124     13.28%     58.80% # Number of instructions fetched each cycle (Total)
system.cpu.fetch.rateDist::3                  6172777     10.16%     68.96% # Number of instructions fetched each cycle (Total)
system.cpu.fetch.rateDist::4                 15085297     24.84%     93.80% # Number of instructions fetched each cycle (Total)
system.cpu.fetch.rateDist::5                  3378116      5.56%     99.36% # Number of instructions fetched each cycle (Total)
system.cpu.fetch.rateDist::6                   193199      0.32%     99.68% # Number of instructions fetched each cycle (Total)
system.cpu.fetch.rateDist::7                    41661      0.07%     99.75% # Number of instructions fetched each cycle (Total)
system.cpu.fetch.rateDist::8                   153807      0.25%    100.00% # Number of instructions fetched each cycle (Total)
system.cpu.fetch.rateDist::overflows                0      0.00%    100.00% # Number of instructions fetched each cycle (Total)
system.cpu.fetch.rateDist::min_value                0                       # Number of instructions fetched each cycle (Total)
system.cpu.fetch.rateDist::max_value                8                       # Number of instructions fetched each cycle (Total)
system.cpu.fetch.rateDist::total             60738354                       # Number of instructions fetched each cycle (Total)
system.cpu.fetch.branchRate                  0.376816                       # Number of branch fetches per cycle
system.cpu.fetch.rate                        1.834227                       # Number of inst fetches per cycle
system.cpu.decode.IdleCycles                  6562374                       # Number of cycles decode is idle
system.cpu.decode.BlockedCycles              37553169                       # Number of cycles decode is blocked
system.cpu.decode.RunCycles                   7211047                       # Number of cycles decode is running
system.cpu.decode.UnblockCycles               9079110                       # Number of cycles decode is unblocking
system.cpu.decode.SquashCycles                 332654                       # Number of cycles decode is squashing
system.cpu.decode.BranchResolved             12741531                       # Number of times decode resolved a branch
system.cpu.decode.BranchMispred                  9776                       # Number of times decode detected a branch misprediction
system.cpu.decode.DecodedInsts              109950684                       # Number of instructions handled by decode
system.cpu.decode.SquashedInsts               1272214                       # Number of squashed instructions handled by decode
system.cpu.rename.SquashCycles                 332654                       # Number of cycles rename is squashing
system.cpu.rename.IdleCycles                 12067865                       # Number of cycles rename is idle
system.cpu.rename.BlockCycles                 6601029                       # Number of cycles rename is blocking
system.cpu.rename.serializeStallCycles         181234                       # count of cycles rename stalled for serializing inst
system.cpu.rename.RunCycles                   9953163                       # Number of cycles rename is running
system.cpu.rename.UnblockCycles              31602409                       # Number of cycles rename is unblocking
system.cpu.rename.RenamedInsts              106329134                       # Number of instructions processed by rename
system.cpu.rename.SquashedInsts                592059                       # Number of squashed instructions processed by rename
system.cpu.rename.ROBFullEvents              10074942                       # Number of times rename has blocked due to ROB full
system.cpu.rename.IQFullEvents                5404914                       # Number of times rename has blocked due to IQ full
system.cpu.rename.LQFullEvents               18292866                       # Number of times rename has blocked due to LQ full
system.cpu.rename.SQFullEvents                1524440                       # Number of times rename has blocked due to SQ full
system.cpu.rename.RenamedOperands           115301179                       # Number of destination operands rename has renamed
system.cpu.rename.RenameLookups             475221424                       # Number of register rename lookups that rename has made
system.cpu.rename.int_rename_lookups        107724329                       # Number of integer rename lookups
system.cpu.rename.CommittedMaps             104969990                       # Number of HB maps that are committed
system.cpu.rename.UndoneMaps                 10331166                       # Number of HB maps that are undone due to squashing
system.cpu.rename.serializingInsts               7771                       # count of serializing insts renamed
system.cpu.rename.tempSerializingInsts           7771                       # count of temporary serializing insts renamed
system.cpu.rename.skidInsts                  60155587                       # count of insts added to the skid buffer
system.cpu.memDep0.insertedLoads             37159045                       # Number of loads inserted to the mem dependence unit.
system.cpu.memDep0.insertedStores             7133577                       # Number of stores inserted to the mem dependence unit.
system.cpu.memDep0.conflictingLoads           7096787                       # Number of conflicting loads.
system.cpu.memDep0.conflictingStores           297424                       # Number of conflicting stores.
system.cpu.iq.iqInstsAdded                  105983741                       # Number of instructions added to the IQ (excludes non-spec)
system.cpu.iq.iqNonSpecInstsAdded               15524                       # Number of non-speculative instructions added to the IQ
system.cpu.iq.iqInstsIssued                 101142121                       # Number of instructions issued
system.cpu.iq.iqSquashedInstsIssued            588218                       # Number of squashed instructions issued
system.cpu.iq.iqSquashedInstsExamined         9325279                       # Number of squashed instructions iterated over during squash; mainly for profiling
system.cpu.iq.iqSquashedOperandsExamined     27708661                       # Number of squashed operands that are examined and possibly removed from graph
system.cpu.iq.iqSquashedNonSpecRemoved             13                       # Number of squashed non-spec instructions that were removed
system.cpu.iq.issued_per_cycle::samples      60738354                       # Number of insts issued each cycle
system.cpu.iq.issued_per_cycle::mean         1.665210                       # Number of insts issued each cycle
system.cpu.iq.issued_per_cycle::stdev        1.011869                       # Number of insts issued each cycle
system.cpu.iq.issued_per_cycle::underflows            0      0.00%      0.00% # Number of insts issued each cycle
system.cpu.iq.issued_per_cycle::0             8391854     13.82%     13.82% # Number of insts issued each cycle
system.cpu.iq.issued_per_cycle::1            18935253     31.18%     44.99% # Number of insts issued each cycle
system.cpu.iq.issued_per_cycle::2            18579738     30.59%     75.58% # Number of insts issued each cycle
system.cpu.iq.issued_per_cycle::3            14280541     23.51%     99.09% # Number of insts issued each cycle
system.cpu.iq.issued_per_cycle::4              549071      0.90%    100.00% # Number of insts issued each cycle
system.cpu.iq.issued_per_cycle::5                1897      0.00%    100.00% # Number of insts issued each cycle
system.cpu.iq.issued_per_cycle::6                   0      0.00%    100.00% # Number of insts issued each cycle
system.cpu.iq.issued_per_cycle::7                   0      0.00%    100.00% # Number of insts issued each cycle
system.cpu.iq.issued_per_cycle::8                   0      0.00%    100.00% # Number of insts issued each cycle
system.cpu.iq.issued_per_cycle::overflows            0      0.00%    100.00% # Number of insts issued each cycle
system.cpu.iq.issued_per_cycle::min_value            0                       # Number of insts issued each cycle
system.cpu.iq.issued_per_cycle::max_value            5                       # Number of insts issued each cycle
system.cpu.iq.issued_per_cycle::total        60738354                       # Number of insts issued each cycle
system.cpu.iq.fu_full::No_OpClass                   0      0.00%      0.00% # attempts to use FU when none available
system.cpu.iq.fu_full::IntAlu                15005694     37.78%     37.78% # attempts to use FU when none available
system.cpu.iq.fu_full::IntMult                      0      0.00%     37.78% # attempts to use FU when none available
system.cpu.iq.fu_full::IntDiv                       0      0.00%     37.78% # attempts to use FU when none available
system.cpu.iq.fu_full::FloatAdd                     0      0.00%     37.78% # attempts to use FU when none available
system.cpu.iq.fu_full::FloatCmp                     0      0.00%     37.78% # attempts to use FU when none available
system.cpu.iq.fu_full::FloatCvt                     0      0.00%     37.78% # attempts to use FU when none available
system.cpu.iq.fu_full::FloatMult                    0      0.00%     37.78% # attempts to use FU when none available
system.cpu.iq.fu_full::FloatMultAcc                 0      0.00%     37.78% # attempts to use FU when none available
system.cpu.iq.fu_full::FloatDiv                     0      0.00%     37.78% # attempts to use FU when none available
system.cpu.iq.fu_full::FloatMisc                    0      0.00%     37.78% # attempts to use FU when none available
system.cpu.iq.fu_full::FloatSqrt                    0      0.00%     37.78% # attempts to use FU when none available
system.cpu.iq.fu_full::SimdAdd                      0      0.00%     37.78% # attempts to use FU when none available
system.cpu.iq.fu_full::SimdAddAcc                   0      0.00%     37.78% # attempts to use FU when none available
system.cpu.iq.fu_full::SimdAlu                      0      0.00%     37.78% # attempts to use FU when none available
system.cpu.iq.fu_full::SimdCmp                      0      0.00%     37.78% # attempts to use FU when none available
system.cpu.iq.fu_full::SimdCvt                      0      0.00%     37.78% # attempts to use FU when none available
system.cpu.iq.fu_full::SimdMisc                     0      0.00%     37.78% # attempts to use FU when none available
system.cpu.iq.fu_full::SimdMult                     0      0.00%     37.78% # attempts to use FU when none available
system.cpu.iq.fu_full::SimdMultAcc                  0      0.00%     37.78% # attempts to use FU when none available
system.cpu.iq.fu_full::SimdShift                    0      0.00%     37.78% # attempts to use FU when none available
system.cpu.iq.fu_full::SimdShiftAcc                 0      0.00%     37.78% # attempts to use FU when none available
system.cpu.iq.fu_full::SimdSqrt                     0      0.00%     37.78% # attempts to use FU when none available
system.cpu.iq.fu_full::SimdFloatAdd                 0      0.00%     37.78% # attempts to use FU when none available
system.cpu.iq.fu_full::SimdFloatAlu                 0      0.00%     37.78% # attempts to use FU when none available
system.cpu.iq.fu_full::SimdFloatCmp                 0      0.00%     37.78% # attempts to use FU when none available
system.cpu.iq.fu_full::SimdFloatCvt                 0      0.00%     37.78% # attempts to use FU when none available
system.cpu.iq.fu_full::SimdFloatDiv                 0      0.00%     37.78% # attempts to use FU when none available
system.cpu.iq.fu_full::SimdFloatMisc                0      0.00%     37.78% # attempts to use FU when none available
system.cpu.iq.fu_full::SimdFloatMult                0      0.00%     37.78% # attempts to use FU when none available
system.cpu.iq.fu_full::SimdFloatMultAcc             0      0.00%     37.78% # attempts to use FU when none available
system.cpu.iq.fu_full::SimdFloatSqrt                0      0.00%     37.78% # attempts to use FU when none available
system.cpu.iq.fu_full::MemRead               23636872     59.51%     97.29% # attempts to use FU when none available
system.cpu.iq.fu_full::MemWrite               1078210      2.71%    100.00% # attempts to use FU when none available
system.cpu.iq.fu_full::FloatMemRead                 0      0.00%    100.00% # attempts to use FU when none available
system.cpu.iq.fu_full::FloatMemWrite                0      0.00%    100.00% # attempts to use FU when none available
system.cpu.iq.fu_full::IprAccess                    0      0.00%    100.00% # attempts to use FU when none available
system.cpu.iq.fu_full::InstPrefetch                 0      0.00%    100.00% # attempts to use FU when none available
system.cpu.iq.FU_type_0::No_OpClass                 0      0.00%      0.00% # Type of FU issued
system.cpu.iq.FU_type_0::IntAlu              58381408     57.72%     57.72% # Type of FU issued
system.cpu.iq.FU_type_0::IntMult                 5881      0.01%     57.73% # Type of FU issued
system.cpu.iq.FU_type_0::IntDiv                     0      0.00%     57.73% # Type of FU issued
system.cpu.iq.FU_type_0::FloatAdd                   0      0.00%     57.73% # Type of FU issued
system.cpu.iq.FU_type_0::FloatCmp                   0      0.00%     57.73% # Type of FU issued
system.cpu.iq.FU_type_0::FloatCvt                   0      0.00%     57.73% # Type of FU issued
system.cpu.iq.FU_type_0::FloatMult                  0      0.00%     57.73% # Type of FU issued
system.cpu.iq.FU_type_0::FloatMultAcc               0      0.00%     57.73% # Type of FU issued
system.cpu.iq.FU_type_0::FloatDiv                   0      0.00%     57.73% # Type of FU issued
system.cpu.iq.FU_type_0::FloatMisc                  0      0.00%     57.73% # Type of FU issued
system.cpu.iq.FU_type_0::FloatSqrt                  0      0.00%     57.73% # Type of FU issued
system.cpu.iq.FU_type_0::SimdAdd                    0      0.00%     57.73% # Type of FU issued
system.cpu.iq.FU_type_0::SimdAddAcc                 0      0.00%     57.73% # Type of FU issued
system.cpu.iq.FU_type_0::SimdAlu                    0      0.00%     57.73% # Type of FU issued
system.cpu.iq.FU_type_0::SimdCmp                    0      0.00%     57.73% # Type of FU issued
system.cpu.iq.FU_type_0::SimdCvt                    0      0.00%     57.73% # Type of FU issued
system.cpu.iq.FU_type_0::SimdMisc                   0      0.00%     57.73% # Type of FU issued
system.cpu.iq.FU_type_0::SimdMult                   0      0.00%     57.73% # Type of FU issued
system.cpu.iq.FU_type_0::SimdMultAcc                0      0.00%     57.73% # Type of FU issued
system.cpu.iq.FU_type_0::SimdShift                  0      0.00%     57.73% # Type of FU issued
system.cpu.iq.FU_type_0::SimdShiftAcc               0      0.00%     57.73% # Type of FU issued
system.cpu.iq.FU_type_0::SimdSqrt                   0      0.00%     57.73% # Type of FU issued
system.cpu.iq.FU_type_0::SimdFloatAdd               0      0.00%     57.73% # Type of FU issued
system.cpu.iq.FU_type_0::SimdFloatAlu               0      0.00%     57.73% # Type of FU issued
system.cpu.iq.FU_type_0::SimdFloatCmp               0      0.00%     57.73% # Type of FU issued
system.cpu.iq.FU_type_0::SimdFloatCvt               0      0.00%     57.73% # Type of FU issued
system.cpu.iq.FU_type_0::SimdFloatDiv               0      0.00%     57.73% # Type of FU issued
system.cpu.iq.FU_type_0::SimdFloatMisc              0      0.00%     57.73% # Type of FU issued
system.cpu.iq.FU_type_0::SimdFloatMult              0      0.00%     57.73% # Type of FU issued
system.cpu.iq.FU_type_0::SimdFloatMultAcc            0      0.00%     57.73% # Type of FU issued
system.cpu.iq.FU_type_0::SimdFloatSqrt              0      0.00%     57.73% # Type of FU issued
system.cpu.iq.FU_type_0::MemRead             36003380     35.60%     93.32% # Type of FU issued
system.cpu.iq.FU_type_0::MemWrite             6751452      6.68%    100.00% # Type of FU issued
system.cpu.iq.FU_type_0::FloatMemRead               0      0.00%    100.00% # Type of FU issued
system.cpu.iq.FU_type_0::FloatMemWrite              0      0.00%    100.00% # Type of FU issued
system.cpu.iq.FU_type_0::IprAccess                  0      0.00%    100.00% # Type of FU issued
system.cpu.iq.FU_type_0::InstPrefetch               0      0.00%    100.00% # Type of FU issued
system.cpu.iq.FU_type_0::total              101142121                       # Type of FU issued
system.cpu.iq.rate                           1.665077                       # Inst issue rate
system.cpu.iq.fu_busy_cnt                    39720776                       # FU busy when requested
system.cpu.iq.fu_busy_rate                   0.392722                       # FU busy rate (busy events/executed inst)
system.cpu.iq.int_inst_queue_reads          303331587                       # Number of integer instruction queue reads
system.cpu.iq.int_inst_queue_writes         115325741                       # Number of integer instruction queue writes
system.cpu.iq.int_inst_queue_wakeup_accesses     99935684                       # Number of integer instruction queue wakeup accesses
system.cpu.iq.fp_inst_queue_reads                   0                       # Number of floating instruction queue reads
system.cpu.iq.fp_inst_queue_writes                  0                       # Number of floating instruction queue writes
system.cpu.iq.fp_inst_queue_wakeup_accesses            0                       # Number of floating instruction queue wakeup accesses
system.cpu.iq.vec_inst_queue_reads                  0                       # Number of vector instruction queue reads
system.cpu.iq.vec_inst_queue_writes                 0                       # Number of vector instruction queue writes
system.cpu.iq.vec_inst_queue_wakeup_accesses            0                       # Number of vector instruction queue wakeup accesses
system.cpu.iq.int_alu_accesses              140862897                       # Number of integer alu accesses
system.cpu.iq.fp_alu_accesses                       0                       # Number of floating point alu accesses
system.cpu.iq.vec_alu_accesses                      0                       # Number of vector alu accesses
system.cpu.iew.lsq.thread0.forwLoads          6665572                       # Number of loads that had data forwarded from stores
system.cpu.iew.lsq.thread0.invAddrLoads             0                       # Number of loads ignored due to an invalid address
system.cpu.iew.lsq.thread0.squashedLoads      3832981                       # Number of loads squashed
system.cpu.iew.lsq.thread0.ignoredResponses           88                       # Number of memory responses ignored because the instruction is squashed
system.cpu.iew.lsq.thread0.memOrderViolation         1200                       # Number of memory ordering violations
system.cpu.iew.lsq.thread0.squashedStores       640934                       # Number of stores squashed
system.cpu.iew.lsq.thread0.invAddrSwpfs             0                       # Number of software prefetches ignored due to an invalid address
system.cpu.iew.lsq.thread0.blockedLoads             0                       # Number of blocked loads due to partial load-store forwarding
system.cpu.iew.lsq.thread0.rescheduledLoads       102305                       # Number of loads that were rescheduled
system.cpu.iew.lsq.thread0.cacheBlocked         37824                       # Number of times an access to memory failed due to the cache being blocked
system.cpu.iew.iewIdleCycles                        0                       # Number of cycles IEW is idle
system.cpu.iew.iewSquashCycles                 332654                       # Number of cycles IEW is squashing
system.cpu.iew.iewBlockCycles                 1718480                       # Number of cycles IEW is blocking
system.cpu.iew.iewUnblockCycles               1349485                       # Number of cycles IEW is unblocking
system.cpu.iew.iewDispatchedInsts           105999265                       # Number of instructions dispatched to IQ
system.cpu.iew.iewDispSquashedInsts                 0                       # Number of squashed instructions skipped by dispatch
system.cpu.iew.iewDispLoadInsts              37159045                       # Number of dispatched load instructions
system.cpu.iew.iewDispStoreInsts              7133577                       # Number of dispatched store instructions
system.cpu.iew.iewDispNonSpecInsts               7772                       # Number of dispatched non-speculative instructions
system.cpu.iew.iewIQFullEvents                     17                       # Number of times the IQ has become full, causing a stall
system.cpu.iew.iewLSQFullEvents               1365371                       # Number of times the LSQ has become full, causing a stall
system.cpu.iew.memOrderViolationEvents           1200                       # Number of memory order violations
system.cpu.iew.predictedTakenIncorrect         180317                       # Number of branches that were predicted taken incorrectly
system.cpu.iew.predictedNotTakenIncorrect       244851                       # Number of branches that were predicted not taken incorrectly
system.cpu.iew.branchMispredicts               425168                       # Number of branch mispredicts detected at execute
system.cpu.iew.iewExecutedInsts             100521099                       # Number of executed instructions
[...]
system.l2.overall_miss_rate::.cpu.data       0.050857                       # miss rate for overall accesses
system.l2.overall_miss_rate::total           0.052658                       # miss rate for overall accesses
system.l2.ReadExReq_avg_miss_latency::.cpu.data 193638.002774                       # average ReadExReq miss latency
system.l2.ReadExReq_avg_miss_latency::total 193638.002774                       # average ReadExReq miss latency
system.l2.ReadCleanReq_avg_miss_latency::.cpu.inst 75267.441860                       # average ReadCleanReq miss latency
system.l2.ReadCleanReq_avg_miss_latency::total 75267.441860                       # average ReadCleanReq miss latency
system.l2.ReadSharedReq_avg_miss_latency::.cpu.data 149146.797153                       # average ReadSharedReq miss latency
system.l2.ReadSharedReq_avg_miss_latency::total 149146.797153                       # average ReadSharedReq miss latency
system.l2.demand_avg_miss_latency::.cpu.inst 75267.441860                       # average overall miss latency
system.l2.demand_avg_miss_latency::.cpu.data 186382.037145                       # average overall miss latency
system.l2.demand_avg_miss_latency::total 182372.587413                       # average overall miss latency
system.l2.overall_avg_miss_latency::.cpu.inst 75267.441860                       # average overall miss latency
system.l2.overall_avg_miss_latency::.cpu.data 186382.037145                       # average overall miss latency
system.l2.overall_avg_miss_latency::total 182372.587413                       # average overall miss latency
system.l2.blocked_cycles::no_mshrs                  0                       # number of cycles access was blocked
system.l2.blocked_cycles::no_targets                0                       # number of cycles access was blocked
system.l2.blocked::no_mshrs                         0                       # number of cycles access was blocked
system.l2.blocked::no_targets                       0                       # number of cycles access was blocked
system.l2.avg_blocked_cycles::no_mshrs            nan                       # average number of cycles each access was blocked
system.l2.avg_blocked_cycles::no_targets          nan                       # average number of cycles each access was blocked
system.l2.unused_prefetches                        34                       # number of HardPF blocks evicted w/o reference
system.l2.writebacks::.writebacks               34689                       # number of writebacks
system.l2.writebacks::total                     34689                       # number of writebacks
system.l2.ReadExReq_mshr_hits::.cpu.data         2096                       # number of ReadExReq MSHR hits
system.l2.ReadExReq_mshr_hits::total             2096                       # number of ReadExReq MSHR hits
system.l2.ReadSharedReq_mshr_hits::.cpu.data            2                       # number of ReadSharedReq MSHR hits
system.l2.ReadSharedReq_mshr_hits::total            2                       # number of ReadSharedReq MSHR hits
system.l2.demand_mshr_hits::.cpu.data            2098                       # number of demand (read+write) MSHR hits
system.l2.demand_mshr_hits::total                2098                       # number of demand (read+write) MSHR hits
system.l2.overall_mshr_hits::.cpu.data           2098                       # number of overall MSHR hits
system.l2.overall_mshr_hits::total               2098                       # number of overall MSHR hits
system.l2.HardPFReq_mshr_misses::.l2.prefetcher        66170                       # number of HardPFReq MSHR misses
system.l2.HardPFReq_mshr_misses::total          66170                       # number of HardPFReq MSHR misses
system.l2.ReadExReq_mshr_misses::.cpu.data          788                       # number of ReadExReq MSHR misses
system.l2.ReadExReq_mshr_misses::total            788                       # number of ReadExReq MSHR misses
system.l2.ReadCleanReq_mshr_misses::.cpu.inst          129                       # number of ReadCleanReq MSHR misses
system.l2.ReadCleanReq_mshr_misses::total          129                       # number of ReadCleanReq MSHR misses
system.l2.ReadSharedReq_mshr_misses::.cpu.data          560                       # number of ReadSharedReq MSHR misses
system.l2.ReadSharedReq_mshr_misses::total          560                       # number of ReadSharedReq MSHR misses
system.l2.demand_mshr_misses::.cpu.inst           129                       # number of demand (read+write) MSHR misses
system.l2.demand_mshr_misses::.cpu.data          1348                       # number of demand (read+write) MSHR misses
system.l2.demand_mshr_misses::total              1477                       # number of demand (read+write) MSHR misses
system.l2.overall_mshr_misses::.cpu.inst          129                       # number of overall MSHR misses
system.l2.overall_mshr_misses::.cpu.data         1348                       # number of overall MSHR misses
system.l2.overall_mshr_misses::.l2.prefetcher        66170                       # number of overall MSHR misses
system.l2.overall_mshr_misses::total            67647                       # number of overall MSHR misses
system.l2.HardPFReq_mshr_miss_latency::.l2.prefetcher   8620788853                       # number of HardPFReq MSHR miss cycles
system.l2.HardPFReq_mshr_miss_latency::total   8620788853                       # number of HardPFReq MSHR miss cycles
system.l2.ReadExReq_mshr_miss_latency::.cpu.data    144766000                       # number of ReadExReq MSHR miss cycles
system.l2.ReadExReq_mshr_miss_latency::total    144766000                       # number of ReadExReq MSHR miss cycles
system.l2.ReadCleanReq_mshr_miss_latency::.cpu.inst      8935500                       # number of ReadCleanReq MSHR miss cycles
system.l2.ReadCleanReq_mshr_miss_latency::total      8935500                       # number of ReadCleanReq MSHR miss cycles
system.l2.ReadSharedReq_mshr_miss_latency::.cpu.data     80341000                       # number of ReadSharedReq MSHR miss cycles
system.l2.ReadSharedReq_mshr_miss_latency::total     80341000                       # number of ReadSharedReq MSHR miss cycles
system.l2.demand_mshr_miss_latency::.cpu.inst      8935500                       # number of demand (read+write) MSHR miss cycles
system.l2.demand_mshr_miss_latency::.cpu.data    225107000                       # number of demand (read+write) MSHR miss cycles
system.l2.demand_mshr_miss_latency::total    234042500                       # number of demand (read+write) MSHR miss cycles
system.l2.overall_mshr_miss_latency::.cpu.inst      8935500                       # number of overall MSHR miss cycles
system.l2.overall_mshr_miss_latency::.cpu.data    225107000                       # number of overall MSHR miss cycles
system.l2.overall_mshr_miss_latency::.l2.prefetcher   8620788853                       # number of overall MSHR miss cycles
system.l2.overall_mshr_miss_latency::total   8854831353                       # number of overall MSHR miss cycles
system.l2.HardPFReq_mshr_miss_rate::.l2.prefetcher          inf                       # mshr miss rate for HardPFReq accesses
system.l2.HardPFReq_mshr_miss_rate::total          inf                       # mshr miss rate for HardPFReq accesses
system.l2.ReadExReq_mshr_miss_rate::.cpu.data     0.022253                       # mshr miss rate for ReadExReq accesses
system.l2.ReadExReq_mshr_miss_rate::total     0.022253                       # mshr miss rate for ReadExReq accesses
system.l2.ReadCleanReq_mshr_miss_rate::.cpu.inst     0.969925                       # mshr miss rate for ReadCleanReq accesses
system.l2.ReadCleanReq_mshr_miss_rate::total     0.969925                       # mshr miss rate for ReadCleanReq accesses
system.l2.ReadSharedReq_mshr_miss_rate::.cpu.data     0.017312                       # mshr miss rate for ReadSharedReq accesses
system.l2.ReadSharedReq_mshr_miss_rate::total     0.017312                       # mshr miss rate for ReadSharedReq accesses
system.l2.demand_mshr_miss_rate::.cpu.inst     0.969925                       # mshr miss rate for demand accesses
system.l2.demand_mshr_miss_rate::.cpu.data     0.019894                       # mshr miss rate for demand accesses
system.l2.demand_mshr_miss_rate::total       0.021755                       # mshr miss rate for demand accesses
system.l2.overall_mshr_miss_rate::.cpu.inst     0.969925                       # mshr miss rate for overall accesses
system.l2.overall_mshr_miss_rate::.cpu.data     0.019894                       # mshr miss rate for overall accesses
system.l2.overall_mshr_miss_rate::.l2.prefetcher          inf                       # mshr miss rate for overall accesses
system.l2.overall_mshr_miss_rate::total      0.996406                       # mshr miss rate for overall accesses
system.l2.HardPFReq_avg_mshr_miss_latency::.l2.prefetcher 130282.436950                       # average HardPFReq mshr miss latency
system.l2.HardPFReq_avg_mshr_miss_latency::total 130282.436950                       # average HardPFReq mshr miss latency
system.l2.ReadExReq_avg_mshr_miss_latency::.cpu.data 183713.197970                       # average ReadExReq mshr miss latency
system.l2.ReadExReq_avg_mshr_miss_latency::total 183713.197970                       # average ReadExReq mshr miss latency
system.l2.ReadCleanReq_avg_mshr_miss_latency::.cpu.inst 69267.441860                       # average ReadCleanReq mshr miss latency
system.l2.ReadCleanReq_avg_mshr_miss_latency::total 69267.441860                       # average ReadCleanReq mshr miss latency
system.l2.ReadSharedReq_avg_mshr_miss_latency::.cpu.data 143466.071429                       # average ReadSharedReq mshr miss latency
system.l2.ReadSharedReq_avg_mshr_miss_latency::total 143466.071429                       # average ReadSharedReq mshr miss latency
system.l2.demand_avg_mshr_miss_latency::.cpu.inst 69267.441860                       # average overall mshr miss latency
system.l2.demand_avg_mshr_miss_latency::.cpu.data 166993.323442                       # average overall mshr miss latency
system.l2.demand_avg_mshr_miss_latency::total 158458.023020                       # average overall mshr miss latency
system.l2.overall_avg_mshr_miss_latency::.cpu.inst 69267.441860                       # average overall mshr miss latency
system.l2.overall_avg_mshr_miss_latency::.cpu.data 166993.323442                       # average overall mshr miss latency
system.l2.overall_avg_mshr_miss_latency::.l2.prefetcher 130282.436950                       # average overall mshr miss latency
system.l2.overall_avg_mshr_miss_latency::total 130897.620781                       # average overall mshr miss latency
system.l2.replacements                          34846                       # number of replacements
system.membus.snoop_filter.tot_requests        102449                       # Total number of requests made to the snoop filter.
system.membus.snoop_filter.hit_single_requests        34877                       # Number of requests hitting in the snoop filter with a single holder of the requested data.
system.membus.snoop_filter.hit_multi_requests            0                       # Number of requests hitting in the snoop filter with multiple (>1) holders of the requested data.
system.membus.snoop_filter.tot_snoops               0                       # Total number of snoops made to the snoop filter.
system.membus.snoop_filter.hit_single_snoops            0                       # Number of snoops hitting in the snoop filter with a single holder of the requested data.
system.membus.snoop_filter.hit_multi_snoops            0                       # Number of snoops hitting in the snoop filter with multiple (>1) holders of the requested data.
system.membus.pwrStateResidencyTicks::UNDEFINED  30413096500                       # Cumulative time (in ticks) in various power states
system.membus.trans_dist::ReadResp              66814                       # Transaction distribution
system.membus.trans_dist::WritebackDirty        34689                       # Transaction distribution
system.membus.trans_dist::CleanEvict              157                       # Transaction distribution
system.membus.trans_dist::ReadExReq               788                       # Transaction distribution
system.membus.trans_dist::ReadExResp              788                       # Transaction distribution
system.membus.trans_dist::ReadCleanReq          66815                       # Transaction distribution
system.membus.pkt_count_system.l2.mem_side::system.mem_ctrls.port       170051                       # Packet count per connected master and slave (bytes)
system.membus.pkt_count::total                 170051                       # Packet count per connected master and slave (bytes)
system.membus.pkt_size_system.l2.mem_side::system.mem_ctrls.port      6546624                       # Cumulative packet size per connected master and slave (bytes)
system.membus.pkt_size::total                 6546624                       # Cumulative packet size per connected master and slave (bytes)
system.membus.snoops                                0                       # Total snoops (count)
system.membus.snoopTraffic                          0                       # Total snoop traffic (bytes)
system.membus.snoop_fanout::samples             67603                       # Request fanout histogram
system.membus.snoop_fanout::mean                    0                       # Request fanout histogram
system.membus.snoop_fanout::stdev                   0                       # Request fanout histogram
system.membus.snoop_fanout::underflows              0      0.00%      0.00% # Request fanout histogram
system.membus.snoop_fanout::0                   67603    100.00%    100.00% # Request fanout histogram
system.membus.snoop_fanout::1                       0      0.00%    100.00% # Request fanout histogram
system.membus.snoop_fanout::overflows               0      0.00%    100.00% # Request fanout histogram
system.membus.snoop_fanout::min_value               0                       # Request fanout histogram
system.membus.snoop_fanout::max_value               0                       # Request fanout histogram
system.membus.snoop_fanout::total               67603                       # Request fanout histogram
system.membus.reqLayer0.occupancy           278240078                       # Layer occupancy (ticks)
system.membus.reqLayer0.utilization               0.9                       # Layer utilization (%)
system.membus.respLayer1.occupancy          350688616                       # Layer occupancy (ticks)
system.membus.respLayer1.utilization              1.2                       # Layer utilization (%)
system.tol2bus.snoop_filter.tot_requests       134873                       # Total number of requests made to the snoop filter.
system.tol2bus.snoop_filter.hit_single_requests        66961                       # Number of requests hitting in the snoop filter with a single holder of the requested data.
system.tol2bus.snoop_filter.hit_multi_requests           54                       # Number of requests hitting in the snoop filter with multiple (>1) holders of the requested data.
system.tol2bus.snoop_filter.tot_snoops             45                       # Total number of snoops made to the snoop filter.
system.tol2bus.snoop_filter.hit_single_snoops           45                       # Number of snoops hitting in the snoop filter with a single holder of the requested data.
system.tol2bus.snoop_filter.hit_multi_snoops            0                       # Number of snoops hitting in the snoop filter with multiple (>1) holders of the requested data.
system.tol2bus.pwrStateResidencyTicks::UNDEFINED  30413096500                       # Cumulative time (in ticks) in various power states
system.tol2bus.trans_dist::ReadResp             32481                       # Transaction distribution
system.tol2bus.trans_dist::WritebackDirty       101335                       # Transaction distribution
system.tol2bus.trans_dist::WritebackClean          336                       # Transaction distribution
system.tol2bus.trans_dist::CleanEvict             157                       # Transaction distribution
system.tol2bus.trans_dist::HardPFReq            83127                       # Transaction distribution
system.tol2bus.trans_dist::ReadExReq            35411                       # Transaction distribution
system.tol2bus.trans_dist::ReadExResp           35411                       # Transaction distribution
system.tol2bus.trans_dist::ReadCleanReq           133                       # Transaction distribution
system.tol2bus.trans_dist::ReadSharedReq        32347                       # Transaction distribution
system.tol2bus.pkt_count_system.cpu.icache.mem_side::system.l2.cpu_side          310                       # Packet count per connected master and slave (bytes)
system.tol2bus.pkt_count_system.cpu.dcache.mem_side::system.l2.cpu_side       202455                       # Packet count per connected master and slave (bytes)
system.tol2bus.pkt_count::total                202765                       # Packet count per connected master and slave (bytes)
system.tol2bus.pkt_size_system.cpu.icache.mem_side::system.l2.cpu_side        11328                       # Cumulative packet size per connected master and slave (bytes)
system.tol2bus.pkt_size_system.cpu.dcache.mem_side::system.l2.cpu_side      8620608                       # Cumulative packet size per connected master and slave (bytes)
system.tol2bus.pkt_size::total                8631936                       # Cumulative packet size per connected master and slave (bytes)
system.tol2bus.snoops                          117973                       # Total snoops (count)
system.tol2bus.snoopTraffic                   2220096                       # Total snoop traffic (bytes)
system.tol2bus.snoop_fanout::samples           185864                       # Request fanout histogram
system.tol2bus.snoop_fanout::mean            0.000420                       # Request fanout histogram
system.tol2bus.snoop_fanout::stdev           0.020481                       # Request fanout histogram
system.tol2bus.snoop_fanout::underflows             0      0.00%      0.00% # Request fanout histogram
system.tol2bus.snoop_fanout::0                 185786     99.96%     99.96% # Request fanout histogram
system.tol2bus.snoop_fanout::1                     78      0.04%    100.00% # Request fanout histogram
system.tol2bus.snoop_fanout::2                      0      0.00%    100.00% # Request fanout histogram
system.tol2bus.snoop_fanout::3                      0      0.00%    100.00% # Request fanout histogram
system.tol2bus.snoop_fanout::4                      0      0.00%    100.00% # Request fanout histogram
system.tol2bus.snoop_fanout::overflows              0      0.00%    100.00% # Request fanout histogram
system.tol2bus.snoop_fanout::min_value              0                       # Request fanout histogram
system.tol2bus.snoop_fanout::max_value              1                       # Request fanout histogram
system.tol2bus.snoop_fanout::total             185864                       # Request fanout histogram
system.tol2bus.reqLayer0.occupancy          134418500                       # Layer occupancy (ticks)
system.tol2bus.reqLayer0.utilization              0.4                       # Layer utilization (%)
system.tol2bus.respLayer0.occupancy            201000                       # Layer occupancy (ticks)
system.tol2bus.respLayer0.utilization             0.0                       # Layer utilization (%)
system.tol2bus.respLayer1.occupancy         101637998                       # Layer occupancy (ticks)
system.tol2bus.respLayer1.utilization             0.3                       # Layer utilization (%)

---------- End Simulation Statistics   ----------
