
---------- Begin Simulation Statistics ----------
sim_seconds                                  0.048337                       # Number of seconds simulated
sim_ticks                                 48336985500                       # Number of ticks simulated
final_tick                                48342882000                       # Number of ticks from beginning of simulation (restored from checkpoints and never reset)
sim_freq                                 1000000000000                       # Frequency of simulated ticks
host_inst_rate                                2234450                       # Simulator instruction rate (inst/s)
host_op_rate                                  2468681                       # Simulator op (including micro ops) rate (op/s)
host_tick_rate                             1234190033                       # Simulator tick rate (ticks/s)
host_mem_usage                                 812192                       # Number of bytes of host memory used
host_seconds                                    39.17                       # Real time elapsed on the host
sim_insts                                    87512088                       # Number of instructions simulated
sim_ops                                      96685735                       # Number of ops (including micro ops) simulated
system.voltage_domain.voltage                       1                       # Voltage in Volts
system.clk_domain.clock                          1000                       # Clock period in ticks
system.mem_ctrls.pwrStateResidencyTicks::UNDEFINED  48342882000                       # Cumulative time (in ticks) in various power states
system.mem_ctrls.bytes_read::.cpu.inst           3904                       # Number of bytes read from this memory
system.mem_ctrls.bytes_read::.cpu.data        4312896                       # Number of bytes read from this memory
system.mem_ctrls.bytes_read::total            4316800                       # Number of bytes read from this memory
system.mem_ctrls.bytes_inst_read::.cpu.inst         3904                       # Number of instructions bytes read from this memory
system.mem_ctrls.bytes_inst_read::total          3904                       # Number of instructions bytes read from this memory
system.mem_ctrls.bytes_written::.writebacks      2220800                       # Number of bytes written to this memory
system.mem_ctrls.bytes_written::total         2220800                       # Number of bytes written to this memory
system.mem_ctrls.num_reads::.cpu.inst              61                       # Number of read requests responded to by this memory
system.mem_ctrls.num_reads::.cpu.data           67389                       # Number of read requests responded to by this memory
system.mem_ctrls.num_reads::total               67450                       # Number of read requests responded to by this memory
system.mem_ctrls.num_writes::.writebacks        34700                       # Number of write requests responded to by this memory
system.mem_ctrls.num_writes::total              34700                       # Number of write requests responded to by this memory
system.mem_ctrls.bw_read::.cpu.inst             80766                       # Total read bandwidth from this memory (bytes/s)
system.mem_ctrls.bw_read::.cpu.data          89225589                       # Total read bandwidth from this memory (bytes/s)
system.mem_ctrls.bw_read::total              89306355                       # Total read bandwidth from this memory (bytes/s)
system.mem_ctrls.bw_inst_read::.cpu.inst        80766                       # Instruction read bandwidth from this memory (bytes/s)
system.mem_ctrls.bw_inst_read::total            80766                       # Instruction read bandwidth from this memory (bytes/s)
system.mem_ctrls.bw_write::.writebacks       45944115                       # Write bandwidth from this memory (bytes/s)
system.mem_ctrls.bw_write::total             45944115                       # Write bandwidth from this memory (bytes/s)
system.mem_ctrls.bw_total::.writebacks       45944115                       # Total bandwidth to/from this memory (bytes/s)
system.mem_ctrls.bw_total::.cpu.inst            80766                       # Total bandwidth to/from this memory (bytes/s)
system.mem_ctrls.bw_total::.cpu.data         89225589                       # Total bandwidth to/from this memory (bytes/s)
system.mem_ctrls.bw_total::total            135250470                       # Total bandwidth to/from this memory (bytes/s)
system.mem_ctrls.priorityMinLatency      0.000000000000                       # per QoS priority minimum request to response latency (s)
system.mem_ctrls.priorityMaxLatency      0.000000000000                       # per QoS priority maximum request to response latency (s)
system.mem_ctrls.numReadWriteTurnArounds            0                       # Number of turnarounds from READ to WRITE
system.mem_ctrls.numWriteReadTurnArounds            0                       # Number of turnarounds from WRITE to READ
system.mem_ctrls.numStayReadState                   0                       # Number of times bus staying in READ state
system.mem_ctrls.numStayWriteState                  0                       # Number of times bus staying in WRITE state
system.mem_ctrls.readReqs                           0                       # Number of read requests accepted
system.mem_ctrls.writeReqs                          0                       # Number of write requests accepted
system.mem_ctrls.readBursts                         0                       # Number of DRAM read bursts, including those serviced by the write queue
system.mem_ctrls.writeBursts                        0                       # Number of DRAM write bursts, including those merged in the write queue
system.mem_ctrls.bytesReadDRAM                      0                       # Total number of bytes read from DRAM
system.mem_ctrls.bytesReadWrQ                       0                       # Total number of bytes read from write queue
system.mem_ctrls.bytesWritten                       0                       # Total number of bytes written to DRAM
system.mem_ctrls.bytesReadSys                       0                       # Total read bytes from the system interface side
system.mem_ctrls.bytesWrittenSys                    0                       # Total written bytes from the system interface side
system.mem_ctrls.servicedByWrQ                      0                       # Number of DRAM read bursts serviced by the write queue
system.mem_ctrls.mergedWrBursts                     0                       # Number of DRAM write bursts merged with an existing one
system.mem_ctrls.neitherReadNorWriteReqs            0                       # Number of requests that are neither read nor write
system.mem_ctrls.perBankRdBursts::0                 0                       # Per bank write bursts
system.mem_ctrls.perBankRdBursts::1                 0                       # Per bank write bursts
system.mem_ctrls.perBankRdBursts::2                 0                       # Per bank write bursts
system.mem_ctrls.perBankRdBursts::3                 0                       # Per bank write bursts
system.mem_ctrls.perBankRdBursts::4                 0                       # Per bank write bursts
system.mem_ctrls.perBankRdBursts::5                 0                       # Per bank write bursts
system.mem_ctrls.perBankRdBursts::6                 0                       # Per bank write bursts
system.mem_ctrls.perBankRdBursts::7                 0                       # Per bank write bursts
system.mem_ctrls.perBankRdBursts::8                 0                       # Per bank write bursts
system.mem_ctrls.perBankRdBursts::9                 0                       # Per bank write bursts
system.mem_ctrls.perBankRdBursts::10                0                       # Per bank write bursts
system.mem_ctrls.perBankRdBursts::11                0                       # Per bank write bursts
system.mem_ctrls.perBankRdBursts::12                0                       # Per bank write bursts
system.mem_ctrls.perBankRdBursts::13                0                       # Per bank write bursts
system.mem_ctrls.perBankRdBursts::14                0                       # Per bank write bursts
system.mem_ctrls.perBankRdBursts::15                0                       # Per bank write bursts
system.mem_ctrls.perBankWrBursts::0                 0                       # Per bank write bursts
system.mem_ctrls.perBankWrBursts::1                 0                       # Per bank write bursts
system.mem_ctrls.perBankWrBursts::2                 0                       # Per bank write bursts
system.mem_ctrls.perBankWrBursts::3                 0                       # Per bank write bursts
system.mem_ctrls.perBankWrBursts::4                 0                       # Per bank write bursts
system.mem_ctrls.perBankWrBursts::5                 0                       # Per bank write bursts
system.mem_ctrls.perBankWrBursts::6                 0                       # Per bank write bursts
system.mem_ctrls.perBankWrBursts::7                 0                       # Per bank write bursts
system.mem_ctrls.perBankWrBursts::8                 0                       # Per bank write bursts
system.mem_ctrls.perBankWrBursts::9                 0                       # Per bank write bursts
system.mem_ctrls.perBankWrBursts::10                0                       # Per bank write bursts
system.mem_ctrls.perBankWrBursts::11                0                       # Per bank write bursts
system.mem_ctrls.perBankWrBursts::12                0                       # Per bank write bursts
system.mem_ctrls.perBankWrBursts::13                0                       # Per bank write bursts
system.mem_ctrls.perBankWrBursts::14                0                       # Per bank write bursts
system.mem_ctrls.perBankWrBursts::15                0                       # Per bank write bursts
system.mem_ctrls.numRdRetry                         0                       # Number of times read queue was full causing retry
system.mem_ctrls.numWrRetry                         0                       # Number of times write queue was full causing retry
system.mem_ctrls.totGap                             0                       # Total gap between requests
system.mem_ctrls.readPktSize::0                     0                       # Read request sizes (log2)
system.mem_ctrls.readPktSize::1                     0                       # Read request sizes (log2)
system.mem_ctrls.readPktSize::2                     0                       # Read request sizes (log2)
system.mem_ctrls.readPktSize::3                     0                       # Read request sizes (log2)
system.mem_ctrls.readPktSize::4                     0                       # Read request sizes (log2)
system.mem_ctrls.readPktSize::5                     0                       # Read request sizes (log2)
system.mem_ctrls.readPktSize::6                     0                       # Read request sizes (log2)
system.mem_ctrls.writePktSize::0                    0                       # Write request sizes (log2)
system.mem_ctrls.writePktSize::1                    0                       # Write request sizes (log2)
system.mem_ctrls.writePktSize::2                    0                       # Write request sizes (log2)
system.mem_ctrls.writePktSize::3                    0                       # Write request sizes (log2)
system.mem_ctrls.writePktSize::4                    0                       # Write request sizes (log2)
system.mem_ctrls.writePktSize::5                    0                       # Write request sizes (log2)
system.mem_ctrls.writePktSize::6                    0                       # Write request sizes (log2)
system.mem_ctrls.rdQLenPdf::0                       0                       # What read queue length does an incoming req see
system.mem_ctrls.rdQLenPdf::1                       0                       # What read queue length does an incoming req see
system.mem_ctrls.rdQLenPdf::2                       0                       # What read queue length does an incoming req see
system.mem_ctrls.rdQLenPdf::3                       0                       # What read queue length does an incoming req see
system.mem_ctrls.rdQLenPdf::4                       0                       # What read queue length does an incoming req see
system.mem_ctrls.rdQLenPdf::5                       0                       # What read queue length does an incoming req see
system.mem_ctrls.rdQLenPdf::6                       0                       # What read queue length does an incoming req see
system.mem_ctrls.rdQLenPdf::7                       0                       # What read queue length does an incoming req see
system.mem_ctrls.rdQLenPdf::8                       0                       # What read queue length does an incoming req see
system.mem_ctrls.rdQLenPdf::9                       0                       # What read queue length does an incoming req see
system.mem_ctrls.rdQLenPdf::10                      0                       # What read queue length does an incoming req see
system.mem_ctrls.rdQLenPdf::11                      0                       # What read queue length does an incoming req see
system.mem_ctrls.rdQLenPdf::12                      0                       # What read queue length does an incoming req see
system.mem_ctrls.rdQLenPdf::13                      0                       # What read queue length does an incoming req see
system.mem_ctrls.rdQLenPdf::14                      0                       # What read queue length does an incoming req see
system.mem_ctrls.rdQLenPdf::15                      0                       # What read queue length does an incoming req see
system.mem_ctrls.rdQLenPdf::16                      0                       # What read queue length does an incoming req see
system.mem_ctrls.rdQLenPdf::17                      0                       # What read queue length does an incoming req see
system.mem_ctrls.rdQLenPdf::18                      0                       # What read queue length does an incoming req see
system.mem_ctrls.rdQLenPdf::19                      0                       # What read queue length does an incoming req see
system.mem_ctrls.rdQLenPdf::20                      0                       # What read queue length does an incoming req see
system.mem_ctrls.rdQLenPdf::21                      0                       # What read queue length does an incoming req see
system.mem_ctrls.rdQLenPdf::22                      0                       # What read queue length does an incoming req see
system.mem_ctrls.rdQLenPdf::23                      0                       # What read queue length does an incoming req see
system.mem_ctrls.rdQLenPdf::24                      0                       # What read queue length does an incoming req see
system.mem_ctrls.rdQLenPdf::25                      0                       # What read queue length does an incoming req see
system.mem_ctrls.rdQLenPdf::26                      0                       # What read queue length does an incoming req see
system.mem_ctrls.rdQLenPdf::27                      0                       # What read queue length does an incoming req see
system.mem_ctrls.rdQLenPdf::28                      0                       # What read queue length does an incoming req see
system.mem_ctrls.rdQLenPdf::29                      0                       # What read queue length does an incoming req see
system.mem_ctrls.rdQLenPdf::30                      0                       # What read queue length does an incoming req see
system.mem_ctrls.rdQLenPdf::31                      0                       # What read queue length does an incoming req see
system.mem_ctrls.wrQLenPdf::0                       0                       # What write queue length does an incoming req see
system.mem_ctrls.wrQLenPdf::1                       0                       # What write queue length does an incoming req see
system.mem_ctrls.wrQLenPdf::2                       0                       # What write queue length does an incoming req see
system.mem_ctrls.wrQLenPdf::3                       0                       # What write queue length does an incoming req see
system.mem_ctrls.wrQLenPdf::4                       0                       # What write queue length does an incoming req see
system.mem_ctrls.wrQLenPdf::5                       0                       # What write queue length does an incoming req see
system.mem_ctrls.wrQLenPdf::6                       0                       # What write queue length does an incoming req see
system.mem_ctrls.wrQLenPdf::7                       0                       # What write queue length does an incoming req see
system.mem_ctrls.wrQLenPdf::8                       0                       # What write queue length does an incoming req see
system.mem_ctrls.wrQLenPdf::9                       0                       # What write queue length does an incoming req see
system.mem_ctrls.wrQLenPdf::10                      0                       # What write queue length does an incoming req see
system.mem_ctrls.wrQLenPdf::11                      0                       # What write queue length does an incoming req see
system.mem_ctrls.wrQLenPdf::12                      0                       # What write queue length does an incoming req see
system.mem_ctrls.wrQLenPdf::13                      0                       # What write queue length does an incoming req see
system.mem_ctrls.wrQLenPdf::14                      0                       # What write queue length does an incoming req see
system.mem_ctrls.wrQLenPdf::15                      0                       # What write queue length does an incoming req see
system.mem_ctrls.wrQLenPdf::16                      0                       # What write queue length does an incoming req see
system.mem_ctrls.wrQLenPdf::17                      0                       # What write queue length does an incoming req see
system.mem_ctrls.wrQLenPdf::18                      0                       # What write queue length does an incoming req see
system.mem_ctrls.wrQLenPdf::19                      0                       # What write queue length does an incoming req see
system.mem_ctrls.wrQLenPdf::20                      0                       # What write queue length does an incoming req see
system.mem_ctrls.wrQLenPdf::21                      0                       # What write queue length does an incoming req see
system.mem_ctrls.wrQLenPdf::22                      0                       # What write queue length does an incoming req see
system.mem_ctrls.wrQLenPdf::23                      0                       # What write queue length does an incoming req see
system.mem_ctrls.wrQLenPdf::24                      0                       # What write queue length does an incoming req see
system.mem_ctrls.wrQLenPdf::25                      0                       # What write queue length does an incoming req see
system.mem_ctrls.wrQLenPdf::26                      0                       # What write queue length does an incoming req see
system.mem_ctrls.wrQLenPdf::27                      0                       # What write queue length does an incoming req see
system.mem_ctrls.wrQLenPdf::28                      0                       # What write queue length does an incoming req see
system.mem_ctrls.wrQLenPdf::29                      0                       # What write queue length does an incoming req see
system.mem_ctrls.wrQLenPdf::30                      0                       # What write queue length does an incoming req see
system.mem_ctrls.wrQLenPdf::31                      0                       # What write queue length does an incoming req see
system.mem_ctrls.wrQLenPdf::32                      0                       # What write queue length does an incoming req see
system.mem_ctrls.wrQLenPdf::33                      0                       # What write queue length does an incoming req see
system.mem_ctrls.wrQLenPdf::34                      0                       # What write queue length does an incoming req see
system.mem_ctrls.wrQLenPdf::35                      0                       # What write queue length does an incoming req see
system.mem_ctrls.wrQLenPdf::36                      0                       # What write queue length does an incoming req see
system.mem_ctrls.wrQLenPdf::37                      0                       # What write queue length does an incoming req see
system.mem_ctrls.wrQLenPdf::38                      0                       # What write queue length does an incoming req see
system.mem_ctrls.wrQLenPdf::39                      0                       # What write queue length does an incoming req see
system.mem_ctrls.wrQLenPdf::40                      0                       # What write queue length does an incoming req see
system.mem_ctrls.wrQLenPdf::41                      0                       # What write queue length does an incoming req see
system.mem_ctrls.wrQLenPdf::42                      0                       # What write queue length does an incoming req see
system.mem_ctrls.wrQLenPdf::43                      0                       # What write queue length does an incoming req see
system.mem_ctrls.wrQLenPdf::44                      0                       # What write queue length does an incoming req see
system.mem_ctrls.wrQLenPdf::45                      0                       # What write queue length does an incoming req see
system.mem_ctrls.wrQLenPdf::46                      0                       # What write queue length does an incoming req see
system.mem_ctrls.wrQLenPdf::47                      0                       # What write queue length does an incoming req see
system.mem_ctrls.wrQLenPdf::48                      0                       # What write queue length does an incoming req see
system.mem_ctrls.wrQLenPdf::49                      0                       # What write queue length does an incoming req see
system.mem_ctrls.wrQLenPdf::50                      0                       # What write queue length does an incoming req see
system.mem_ctrls.wrQLenPdf::51                      0                       # What write queue length does an incoming req see
system.mem_ctrls.wrQLenPdf::52                      0                       # What write queue length does an incoming req see
system.mem_ctrls.wrQLenPdf::53                      0                       # What write queue length does an incoming req see
system.mem_ctrls.wrQLenPdf::54                      0                       # What write queue length does an incoming req see
system.mem_ctrls.wrQLenPdf::55                      0                       # What write queue length does an incoming req see
system.mem_ctrls.wrQLenPdf::56                      0                       # What write queue length does an incoming req see
system.mem_ctrls.wrQLenPdf::57                      0                       # What write queue length does an incoming req see
system.mem_ctrls.wrQLenPdf::58                      0                       # What write queue length does an incoming req see
system.mem_ctrls.wrQLenPdf::59                      0                       # What write queue length does an incoming req see
system.mem_ctrls.wrQLenPdf::60                      0                       # What write queue length does an incoming req see
system.mem_ctrls.wrQLenPdf::61                      0                       # What write queue length does an incoming req see
system.mem_ctrls.wrQLenPdf::62                      0                       # What write queue length does an incoming req see
system.mem_ctrls.wrQLenPdf::63                      0                       # What write queue length does an incoming req see
system.mem_ctrls.totQLat                            0                       # Total ticks spent queuing
system.mem_ctrls.totMemAccLat                       0                       # Total ticks spent from burst creation until serviced by the DRAM
system.mem_ctrls.totBusLat                          0                       # Total ticks spent in databus transfers
system.mem_ctrls.avgQLat                          nan                       # Average queueing delay per DRAM burst
system.mem_ctrls.avgBusLat                        nan                       # Average bus latency per DRAM burst
system.mem_ctrls.avgMemAccLat                     nan                       # Average memory access latency per DRAM burst
system.mem_ctrls.avgRdBW                         0.00                       # Average DRAM read bandwidth in MiByte/s
system.mem_ctrls.avgWrBW                         0.00                       # Average achieved write bandwidth in MiByte/s
system.mem_ctrls.avgRdBWSys                      0.00                       # Average system read bandwidth in MiByte/s
system.mem_ctrls.avgWrBWSys                      0.00                       # Average system write bandwidth in MiByte/s
system.mem_ctrls.peakBW                      12800.00                       # Theoretical peak bandwidth in MiByte/s
system.mem_ctrls.busUtil                         0.00                       # Data bus utilization in percentage
system.mem_ctrls.busUtilRead                     0.00                       # Data bus utilization in percentage for reads
system.mem_ctrls.busUtilWrite                    0.00                       # Data bus utilization in percentage for writes
system.mem_ctrls.avgRdQLen                       0.00                       # Average read queue length when enqueuing
system.mem_ctrls.avgWrQLen                       0.00                       # Average write queue length when enqueuing
system.mem_ctrls.readRowHits                        0                       # Number of row buffer hits during reads
system.mem_ctrls.writeRowHits                       0                       # Number of row buffer hits during writes
system.mem_ctrls.readRowHitRate                   nan                       # Row buffer hit rate for reads
system.mem_ctrls.writeRowHitRate                  nan                       # Row buffer hit rate for writes
system.mem_ctrls.avgGap                           nan                       # Average gap between requests
system.mem_ctrls.pageHitRate                      nan                       # Row buffer hit rate, read and write combined
system.mem_ctrls_0.actEnergy                        0                       # Energy for activate commands per rank (pJ)
system.mem_ctrls_0.preEnergy                        0                       # Energy for precharge commands per rank (pJ)
system.mem_ctrls_0.readEnergy                       0                       # Energy for read commands per rank (pJ)
system.mem_ctrls_0.writeEnergy                      0                       # Energy for write commands per rank (pJ)
system.mem_ctrls_0.refreshEnergy                    0                       # Energy for refresh commands per rank (pJ)
system.mem_ctrls_0.actBackEnergy                    0                       # Energy for active background per rank (pJ)
system.mem_ctrls_0.preBackEnergy          18561402240                       # Energy for precharge background per rank (pJ)
system.mem_ctrls_0.actPowerDownEnergy               0                       # Energy for active power-down per rank (pJ)
system.mem_ctrls_0.prePowerDownEnergy               0                       # Energy for precharge power-down per rank (pJ)
system.mem_ctrls_0.selfRefreshEnergy                0                       # Energy for self refresh per rank (pJ)
system.mem_ctrls_0.totalEnergy            18561402240                       # Total energy per rank (pJ)
system.mem_ctrls_0.averagePower            383.999996                       # Core power per rank (mW)
system.mem_ctrls_0.totalIdleTime                    0                       # Total Idle time Per DRAM Rank
system.mem_ctrls_0.memoryStateTime::IDLE  48342882000                       # Time in different power states
system.mem_ctrls_0.memoryStateTime::REF             0                       # Time in different power states
system.mem_ctrls_0.memoryStateTime::SREF            0                       # Time in different power states
system.mem_ctrls_0.memoryStateTime::PRE_PDN            0                       # Time in different power states
system.mem_ctrls_0.memoryStateTime::ACT             0                       # Time in different power states
system.mem_ctrls_0.memoryStateTime::ACT_PDN            0                       # Time in different power states
system.mem_ctrls_1.actEnergy                        0                       # Energy for activate commands per rank (pJ)
system.mem_ctrls_1.preEnergy                        0                       # Energy for precharge commands per rank (pJ)
system.mem_ctrls_1.readEnergy                       0                       # Energy for read commands per rank (pJ)
system.mem_ctrls_1.writeEnergy                      0                       # Energy for write commands per rank (pJ)
system.mem_ctrls_1.refreshEnergy                    0                       # Energy for refresh commands per rank (pJ)
system.mem_ctrls_1.actBackEnergy                    0                       # Energy for active background per rank (pJ)
system.mem_ctrls_1.preBackEnergy          18561402240                       # Energy for precharge background per rank (pJ)
system.mem_ctrls_1.actPowerDownEnergy               0                       # Energy for active power-down per rank (pJ)
system.mem_ctrls_1.prePowerDownEnergy               0                       # Energy for precharge power-down per rank (pJ)
system.mem_ctrls_1.selfRefreshEnergy                0                       # Energy for self refresh per rank (pJ)
system.mem_ctrls_1.totalEnergy            18561402240                       # Total energy per rank (pJ)
system.mem_ctrls_1.averagePower            383.999996                       # Core power per rank (mW)
system.mem_ctrls_1.totalIdleTime                    0                       # Total Idle time Per DRAM Rank
system.mem_ctrls_1.memoryStateTime::IDLE  48342882000                       # Time in different power states
system.mem_ctrls_1.memoryStateTime::REF             0                       # Time in different power states
system.mem_ctrls_1.memoryStateTime::SREF            0                       # Time in different power states
system.mem_ctrls_1.memoryStateTime::PRE_PDN            0                       # Time in different power states
system.mem_ctrls_1.memoryStateTime::ACT             0                       # Time in different power states
system.mem_ctrls_1.memoryStateTime::ACT_PDN            0                       # Time in different power states
system.pwrStateResidencyTicks::UNDEFINED  48342882000                       # Cumulative time (in ticks) in various power states
system.cpu_voltage_domain.voltage                   1                       # Voltage in Volts
system.cpu_clk_domain.clock                       500                       # Clock period in ticks
system.cpu.dstage2_mmu.stage2_tlb.walker.pwrStateResidencyTicks::UNDEFINED  48342882000                       # Cumulative time (in ticks) in various power states
system.cpu.dstage2_mmu.stage2_tlb.walker.walks            0                       # Table walker walks requested
system.cpu.dstage2_mmu.stage2_tlb.walker.walkRequestOrigin_Requested::Data            0                       # Table walker requests started/completed, data/inst
system.cpu.dstage2_mmu.stage2_tlb.walker.walkRequestOrigin_Requested::Inst            0                       # Table walker requests started/completed, data/inst
system.cpu.dstage2_mmu.stage2_tlb.walker.walkRequestOrigin_Requested::total            0                       # Table walker requests started/completed, data/inst
system.cpu.dstage2_mmu.stage2_tlb.walker.walkRequestOrigin_Completed::Data            0                       # Table walker requests started/completed, data/inst
system.cpu.dstage2_mmu.stage2_tlb.walker.walkRequestOrigin_Completed::Inst            0                       # Table walker requests started/completed, data/inst
system.cpu.dstage2_mmu.stage2_tlb.walker.walkRequestOrigin_Completed::total            0                       # Table walker requests started/completed, data/inst
system.cpu.dstage2_mmu.stage2_tlb.walker.walkRequestOrigin::total            0                       # Table walker requests started/completed, data/inst
system.cpu.dstage2_mmu.stage2_tlb.inst_hits            0                       # ITB inst hits
system.cpu.dstage2_mmu.stage2_tlb.inst_misses            0                       # ITB inst misses
system.cpu.dstage2_mmu.stage2_tlb.read_hits            0                       # DTB read hits
system.cpu.dstage2_mmu.stage2_tlb.read_misses            0                       # DTB read misses
system.cpu.dstage2_mmu.stage2_tlb.write_hits            0                       # DTB write hits
system.cpu.dstage2_mmu.stage2_tlb.write_misses            0                       # DTB write misses
system.cpu.dstage2_mmu.stage2_tlb.flush_tlb            0                       # Number of times complete TLB was flushed
system.cpu.dstage2_mmu.stage2_tlb.flush_tlb_mva            0                       # Number of times TLB was flushed by MVA
system.cpu.dstage2_mmu.stage2_tlb.flush_tlb_mva_asid            0                       # Number of times TLB was flushed by MVA & ASID
system.cpu.dstage2_mmu.stage2_tlb.flush_tlb_asid            0                       # Number of times TLB was flushed by ASID
system.cpu.dstage2_mmu.stage2_tlb.flush_entries            0                       # Number of entries that have been flushed from TLB
system.cpu.dstage2_mmu.stage2_tlb.align_faults            0                       # Number of TLB faults due to alignment restrictions
system.cpu.dstage2_mmu.stage2_tlb.prefetch_faults            0                       # Number of TLB faults due to prefetch
system.cpu.dstage2_mmu.stage2_tlb.domain_faults            0                       # Number of TLB faults due to domain restrictions
system.cpu.dstage2_mmu.stage2_tlb.perms_faults            0                       # Number of TLB faults due to permissions restrictions
system.cpu.dstage2_mmu.stage2_tlb.read_accesses            0                       # DTB read accesses
system.cpu.dstage2_mmu.stage2_tlb.write_accesses            0                       # DTB write accesses
system.cpu.dstage2_mmu.stage2_tlb.inst_accesses            0                       # ITB inst accesses
system.cpu.dstage2_mmu.stage2_tlb.hits              0                       # DTB hits
system.cpu.dstage2_mmu.stage2_tlb.misses            0                       # DTB misses
system.cpu.dstage2_mmu.stage2_tlb.accesses            0                       # DTB accesses
system.cpu.dtb.walker.pwrStateResidencyTicks::UNDEFINED  48342882000                       # Cumulative time (in ticks) in various power states
system.cpu.dtb.walker.walks                         0                       # Table walker walks requested
system.cpu.dtb.walker.walkRequestOrigin_Requested::Data            0                       # Table walker requests started/completed, data/inst
system.cpu.dtb.walker.walkRequestOrigin_Requested::Inst            0                       # Table walker requests started/completed, data/inst
system.cpu.dtb.walker.walkRequestOrigin_Requested::total            0                       # Table walker requests started/completed, data/inst
system.cpu.dtb.walker.walkRequestOrigin_Completed::Data            0                       # Table walker requests started/completed, data/inst
system.cpu.dtb.walker.walkRequestOrigin_Completed::Inst            0                       # Table walker requests started/completed, data/inst
system.cpu.dtb.walker.walkRequestOrigin_Completed::total            0                       # Table walker requests started/completed, data/inst
system.cpu.dtb.walker.walkRequestOrigin::total            0                       # Table walker requests started/completed, data/inst
system.cpu.dtb.inst_hits                            0                       # ITB inst hits
system.cpu.dtb.inst_misses                          0                       # ITB inst misses
system.cpu.dtb.read_hits                            0                       # DTB read hits
system.cpu.dtb.read_misses                          0                       # DTB read misses
system.cpu.dtb.write_hits                           0                       # DTB write hits
system.cpu.dtb.write_misses                         0                       # DTB write misses
system.cpu.dtb.flush_tlb                            0                       # Number of times complete TLB was flushed
system.cpu.dtb.flush_tlb_mva                        0                       # Number of times TLB was flushed by MVA
system.cpu.dtb.flush_tlb_mva_asid                   0                       # Number of times TLB was flushed by MVA & ASID
system.cpu.dtb.flush_tlb_asid                       0                       # Number of times TLB was flushed by ASID
system.cpu.dtb.flush_entries                        0                       # Number of entries that have been flushed from TLB
system.cpu.dtb.align_faults                         0                       # Number of TLB faults due to alignment restrictions
system.cpu.dtb.prefetch_faults                      0                       # Number of TLB faults due to prefetch
system.cpu.dtb.domain_faults                        0                       # Number of TLB faults due to domain restrictions
system.cpu.dtb.perms_faults                         0                       # Number of TLB faults due to permissions restrictions
system.cpu.dtb.read_accesses                        0                       # DTB read accesses
system.cpu.dtb.write_accesses                       0                       # DTB write accesses
system.cpu.dtb.inst_accesses                        0                       # ITB inst accesses
system.cpu.dtb.hits                                 0                       # DTB hits
system.cpu.dtb.misses                               0                       # DTB misses
system.cpu.dtb.accesses                             0                       # DTB accesses
system.cpu.istage2_mmu.stage2_tlb.walker.pwrStateResidencyTicks::UNDEFINED  48342882000                       # Cumulative time (in ticks) in various power states
system.cpu.istage2_mmu.stage2_tlb.walker.walks            0                       # Table walker walks requested
system.cpu.istage2_mmu.stage2_tlb.walker.walkRequestOrigin_Requested::Data            0                       # Table walker requests started/completed, data/inst
system.cpu.istage2_mmu.stage2_tlb.walker.walkRequestOrigin_Requested::Inst            0                       # Table walker requests started/completed, data/inst
system.cpu.istage2_mmu.stage2_tlb.walker.walkRequestOrigin_Requested::total            0                       # Table walker requests started/completed, data/inst
system.cpu.istage2_mmu.stage2_tlb.walker.walkRequestOrigin_Completed::Data            0                       # Table walker requests started/completed, data/inst
system.cpu.istage2_mmu.stage2_tlb.walker.walkRequestOrigin_Completed::Inst            0                       # Table walker requests started/completed, data/inst
system.cpu.istage2_mmu.stage2_tlb.walker.walkRequestOrigin_Completed::total            0                       # Table walker requests started/completed, data/inst
system.cpu.istage2_mmu.stage2_tlb.walker.walkRequestOrigin::total            0                       # Table walker requests started/completed, data/inst
system.cpu.istage2_mmu.stage2_tlb.inst_hits            0                       # ITB inst hits
system.cpu.istage2_mmu.stage2_tlb.inst_misses            0                       # ITB inst misses
system.cpu.istage2_mmu.stage2_tlb.read_hits            0                       # DTB read hits
system.cpu.istage2_mmu.stage2_tlb.read_misses            0                       # DTB read misses
system.cpu.istage2_mmu.stage2_tlb.write_hits            0                       # DTB write hits
system.cpu.istage2_mmu.stage2_tlb.write_misses            0                       # DTB write misses
system.cpu.istage2_mmu.stage2_tlb.flush_tlb            0                       # Number of times complete TLB was flushed
system.cpu.istage2_mmu.stage2_tlb.flush_tlb_mva            0                       # Number of times TLB was flushed by MVA
system.cpu.istage2_mmu.stage2_tlb.flush_tlb_mva_asid            0                       # Number of times TLB was flushed by MVA & ASID
system.cpu.istage2_mmu.stage2_tlb.flush_tlb_asid            0                       # Number of times TLB was flushed by ASID
system.cpu.istage2_mmu.stage2_tlb.flush_entries            0                       # Number of entries that have been flushed from TLB
system.cpu.istage2_mmu.stage2_tlb.align_faults            0                       # Number of TLB faults due to alignment restrictions
system.cpu.istage2_mmu.stage2_tlb.prefetch_faults            0                       # Number of TLB faults due to prefetch
system.cpu.istage2_mmu.stage2_tlb.domain_faults            0                       # Number of TLB faults due to domain restrictions
system.cpu.istage2_mmu.stage2_tlb.perms_faults            0                       # Number of TLB faults due to permissions restrictions
system.cpu.istage2_mmu.stage2_tlb.read_accesses            0                       # DTB read accesses
system.cpu.istage2_mmu.stage2_tlb.write_accesses            0                       # DTB write accesses
system.cpu.istage2_mmu.stage2_tlb.inst_accesses            0                       # ITB inst accesses
system.cpu.istage2_mmu.stage2_tlb.hits              0                       # DTB hits
system.cpu.istage2_mmu.stage2_tlb.misses            0                       # DTB misses
system.cpu.istage2_mmu.stage2_tlb.accesses            0                       # DTB accesses
system.cpu.itb.walker.pwrStateResidencyTicks::UNDEFINED  48342882000                       # Cumulative time (in ticks) in various power states
system.cpu.itb.walker.walks                         0                       # Table walker walks requested
system.cpu.itb.walker.walkRequestOrigin_Requested::Data            0                       # Table walker requests started/completed, data/inst
system.cpu.itb.walker.walkRequestOrigin_Requested::Inst            0                       # Table walker requests started/completed, data/inst
system.cpu.itb.walker.walkRequestOrigin_Requested::total            0                       # Table walker requests started/completed, data/inst
system.cpu.itb.walker.walkRequestOrigin_Completed::Data            0                       # Table walker requests started/completed, data/inst
system.cpu.itb.walker.walkRequestOrigin_Completed::Inst            0                       # Table walker requests started/completed, data/inst
system.cpu.itb.walker.walkRequestOrigin_Completed::total            0                       # Table walker requests started/completed, data/inst
system.cpu.itb.walker.walkRequestOrigin::total            0                       # Table walker requests started/completed, data/inst
system.cpu.itb.inst_hits                            0                       # ITB inst hits
system.cpu.itb.inst_misses                          0                       # ITB inst misses
system.cpu.itb.read_hits                            0                       # DTB read hits
system.cpu.itb.read_misses                          0                       # DTB read misses
system.cpu.itb.write_hits                           0                       # DTB write hits
system.cpu.itb.write_misses                         0                       # DTB write misses
system.cpu.itb.flush_tlb                            0                       # Number of times complete TLB was flushed
system.cpu.itb.flush_tlb_mva                        0                       # Number of times TLB was flushed by MVA
system.cpu.itb.flush_tlb_mva_asid                   0                       # Number of times TLB was flushed by MVA & ASID
system.cpu.itb.flush_tlb_asid                       0                       # Number of times TLB was flushed by ASID
system.cpu.itb.flush_entries                        0                       # Number of entries that have been flushed from TLB
system.cpu.itb.align_faults                         0                       # Number of TLB faults due to alignment restrictions
system.cpu.itb.prefetch_faults                      0                       # Number of TLB faults due to prefetch
system.cpu.itb.domain_faults                        0                       # Number of TLB faults due to domain restrictions
system.cpu.itb.perms_faults                         0                       # Number of TLB faults due to permissions restrictions
system.cpu.itb.read_accesses                        0                       # DTB read accesses
system.cpu.itb.write_accesses                       0                       # DTB write accesses
system.cpu.itb.inst_accesses                        0                       # ITB inst accesses
system.cpu.itb.hits                                 0                       # DTB hits
system.cpu.itb.misses                               0                       # DTB misses
system.cpu.itb.accesses                             0                       # DTB accesses
system.cpu.workload.numSyscalls                     6                       # Number of system calls
system.cpu.pwrStateResidencyTicks::ON     48342882000                       # Cumulative time (in ticks) in various power states
system.cpu.numCycles                         96673971                       # number of cpu cycles simulated
system.cpu.numWorkItemsStarted                      0                       # number of work items this cpu started
system.cpu.numWorkItemsCompleted                    0                       # number of work items this cpu completed
system.cpu.committedInsts                    87502343                       # Number of instructions committed
system.cpu.committedOps                      96673965                       # Number of ops (including micro ops) committed
system.cpu.num_int_alu_accesses              78808552                       # Number of integer alu accesses
system.cpu.num_fp_alu_accesses                      0                       # Number of float alu accesses
system.cpu.num_vec_alu_accesses                     0                       # Number of vector alu accesses
system.cpu.num_func_calls                      764383                       # number of times a function call or return occured
system.cpu.num_conditional_control_insts     15057345                       # number of instructions that are conditional controls
system.cpu.num_int_insts                     78808552                       # number of integer instructions
system.cpu.num_fp_insts                             0                       # number of float instructions
system.cpu.num_vec_insts                            0                       # number of vector instructions
system.cpu.num_int_register_reads           134624729                       # number of times the integer registers were read
system.cpu.num_int_register_writes           55201824                       # number of times the integer registers were written
system.cpu.num_fp_register_reads                    0                       # number of times the floating registers were read
system.cpu.num_fp_register_writes                   0                       # number of times the floating registers were written
system.cpu.num_vec_register_reads                   0                       # number of times the vector registers were read
system.cpu.num_vec_register_writes                  0                       # number of times the vector registers were written
system.cpu.num_cc_register_reads            290021913                       # number of times the CC registers were read
system.cpu.num_cc_register_writes            48556283                       # number of times the CC registers were written
system.cpu.num_mem_refs                      39818699                       # number of memory refs
system.cpu.num_load_insts                    33326057                       # Number of load instructions
system.cpu.num_store_insts                    6492642                       # Number of store instructions
system.cpu.num_idle_cycles                          0                       # Number of idle cycles
system.cpu.num_busy_cycles                   96673971                       # Number of busy cycles
system.cpu.not_idle_fraction                        1                       # Percentage of non-idle cycles
system.cpu.idle_fraction                            0                       # Percentage of idle cycles
system.cpu.Branches                          18659806                       # Number of branches fetched
system.cpu.op_class::No_OpClass                     0      0.00%      0.00% # Class of executed instruction
system.cpu.op_class::IntAlu                  56849449     58.81%     58.81% # Class of executed instruction
system.cpu.op_class::IntMult                     5823      0.01%     58.81% # Class of executed instruction
system.cpu.op_class::IntDiv                         0      0.00%     58.81% # Class of executed instruction
system.cpu.op_class::FloatAdd                       0      0.00%     58.81% # Class of executed instruction
system.cpu.op_class::FloatCmp                       0      0.00%     58.81% # Class of executed instruction
system.cpu.op_class::FloatCvt                       0      0.00%     58.81% # Class of executed instruction
system.cpu.op_class::FloatMult                      0      0.00%     58.81% # Class of executed instruction
system.cpu.op_class::FloatMultAcc                   0      0.00%     58.81% # Class of executed instruction
system.cpu.op_class::FloatDiv                       0      0.00%     58.81% # Class of executed instruction
system.cpu.op_class::FloatMisc                      0      0.00%     58.81% # Class of executed instruction
system.cpu.op_class::FloatSqrt                      0      0.00%     58.81% # Class of executed instruction
system.cpu.op_class::SimdAdd                        0      0.00%     58.81% # Class of executed instruction
system.cpu.op_class::SimdAddAcc                     0      0.00%     58.81% # Class of executed instruction
system.cpu.op_class::SimdAlu                        0      0.00%     58.81% # Class of executed instruction
system.cpu.op_class::SimdCmp                        0      0.00%     58.81% # Class of executed instruction
system.cpu.op_class::SimdCvt                        0      0.00%     58.81% # Class of executed instruction
system.cpu.op_class::SimdMisc                       0      0.00%     58.81% # Class of executed instruction
system.cpu.op_class::SimdMult                       0      0.00%     58.81% # Class of executed instruction
system.cpu.op_class::SimdMultAcc                    0      0.00%     58.81% # Class of executed instruction
system.cpu.op_class::SimdShift                      0      0.00%     58.81% # Class of executed instruction
system.cpu.op_class::SimdShiftAcc                   0      0.00%     58.81% # Class of executed instruction
system.cpu.op_class::SimdSqrt                       0      0.00%     58.81% # Class of executed instruction
system.cpu.op_class::SimdFloatAdd                   0      0.00%     58.81% # Class of executed instruction
system.cpu.op_class::SimdFloatAlu                   0      0.00%     58.81% # Class of executed instruction
system.cpu.op_class::SimdFloatCmp                   0      0.00%     58.81% # Class of executed instruction
system.cpu.op_class::SimdFloatCvt                   0      0.00%     58.81% # Class of executed instruction
system.cpu.op_class::SimdFloatDiv                   0      0.00%     58.81% # Class of executed instruction
system.cpu.op_class::SimdFloatMisc                  0      0.00%     58.81% # Class of executed instruction
system.cpu.op_class::SimdFloatMult                  0      0.00%     58.81% # Class of executed instruction
system.cpu.op_class::SimdFloatMultAcc               0      0.00%     58.81% # Class of executed instruction
system.cpu.op_class::SimdFloatSqrt                  0      0.00%     58.81% # Class of executed instruction
system.cpu.op_class::MemRead                 33326057     34.47%     93.28% # Class of executed instruction
system.cpu.op_class::MemWrite                 6492642      6.72%    100.00% # Class of executed instruction
system.cpu.op_class::FloatMemRead                   0      0.00%    100.00% # Class of executed instruction
system.cpu.op_class::FloatMemWrite                  0      0.00%    100.00% # Class of executed instruction
system.cpu.op_class::IprAccess                      0      0.00%    100.00% # Class of executed instruction
system.cpu.op_class::InstPrefetch                   0      0.00%    100.00% # Class of executed instruction
system.cpu.op_class::total                   96673971                       # Class of executed instruction
system.cpu.dcache.tags.pwrStateResidencyTicks::UNDEFINED  48342882000                       # Cumulative time (in ticks) in various power states
system.cpu.dcache.tags.tagsinuse          1018.251143                       # Cycle average of tags in use
system.cpu.dcache.tags.total_refs             8587875                       # Total number of references to valid blocks.
system.cpu.dcache.tags.sampled_refs             66897                       # Sample count of references to valid blocks.
system.cpu.dcache.tags.avg_refs            128.374591                       # Average number of references to valid blocks.
system.cpu.dcache.tags.warmup_cycle                 0                       # Cycle when the warmup percentage was hit.
system.cpu.dcache.tags.occ_blocks::.cpu.data  1018.251143                       # Average occupied blocks per requestor
system.cpu.dcache.tags.occ_percent::.cpu.data     0.994386                       # Average percentage of cache occupancy
system.cpu.dcache.tags.occ_percent::total     0.994386                       # Average percentage of cache occupancy
system.cpu.dcache.tags.occ_task_id_blocks::1024         1024                       # Occupied blocks per task id
system.cpu.dcache.tags.age_task_id_blocks_1024::0           25                       # Occupied blocks per task id
system.cpu.dcache.tags.age_task_id_blocks_1024::1          115                       # Occupied blocks per task id
system.cpu.dcache.tags.age_task_id_blocks_1024::2          831                       # Occupied blocks per task id
system.cpu.dcache.tags.age_task_id_blocks_1024::3           18                       # Occupied blocks per task id
system.cpu.dcache.tags.age_task_id_blocks_1024::4           35                       # Occupied blocks per task id
system.cpu.dcache.tags.occ_task_id_percent::1024            1                       # Percentage of cache occupancy per task id
system.cpu.dcache.tags.tag_accesses          79049122                       # Number of tag accesses
system.cpu.dcache.tags.data_accesses         79049122                       # Number of data accesses
system.cpu.dcache.pwrStateResidencyTicks::UNDEFINED  48342882000                       # Cumulative time (in ticks) in various power states
system.cpu.dcache.ReadReq_hits::.cpu.data     33101194                       # number of ReadReq hits
system.cpu.dcache.ReadReq_hits::total        33101194                       # number of ReadReq hits
system.cpu.dcache.WriteReq_hits::.cpu.data      6306274                       # number of WriteReq hits
system.cpu.dcache.WriteReq_hits::total        6306274                       # number of WriteReq hits
system.cpu.dcache.LoadLockedReq_hits::.cpu.data         7752                       # number of LoadLockedReq hits
system.cpu.dcache.LoadLockedReq_hits::total         7752                       # number of LoadLockedReq hits
system.cpu.dcache.StoreCondReq_hits::.cpu.data         7752                       # number of StoreCondReq hits
system.cpu.dcache.StoreCondReq_hits::total         7752                       # number of StoreCondReq hits
system.cpu.dcache.demand_hits::.cpu.data     39407468                       # number of demand (read+write) hits
system.cpu.dcache.demand_hits::total         39407468                       # number of demand (read+write) hits
system.cpu.dcache.overall_hits::.cpu.data     39407468                       # number of overall hits
system.cpu.dcache.overall_hits::total        39407468                       # number of overall hits
system.cpu.dcache.ReadReq_misses::.cpu.data        32315                       # number of ReadReq misses
system.cpu.dcache.ReadReq_misses::total         32315                       # number of ReadReq misses
system.cpu.dcache.WriteReq_misses::.cpu.data        35411                       # number of WriteReq misses
system.cpu.dcache.WriteReq_misses::total        35411                       # number of WriteReq misses
system.cpu.dcache.demand_misses::.cpu.data        67726                       # number of demand (read+write) misses
system.cpu.dcache.demand_misses::total          67726                       # number of demand (read+write) misses
system.cpu.dcache.overall_misses::.cpu.data        67726                       # number of overall misses
system.cpu.dcache.overall_misses::total         67726                       # number of overall misses
system.cpu.dcache.ReadReq_accesses::.cpu.data     33133509                       # number of ReadReq accesses(hits+misses)
system.cpu.dcache.ReadReq_accesses::total     33133509                       # number of ReadReq accesses(hits+misses)
system.cpu.dcache.WriteReq_accesses::.cpu.data      6341685                       # number of WriteReq accesses(hits+misses)
system.cpu.dcache.WriteReq_accesses::total      6341685                       # number of WriteReq accesses(hits+misses)
system.cpu.dcache.LoadLockedReq_accesses::.cpu.data         7752                       # number of LoadLockedReq accesses(hits+misses)
system.cpu.dcache.LoadLockedReq_accesses::total         7752                       # number of LoadLockedReq accesses(hits+misses)
system.cpu.dcache.StoreCondReq_accesses::.cpu.data         7752                       # number of StoreCondReq accesses(hits+misses)
system.cpu.dcache.StoreCondReq_accesses::total         7752                       # number of StoreCondReq accesses(hits+misses)
system.cpu.dcache.demand_accesses::.cpu.data     39475194                       # number of demand (read+write) accesses
system.cpu.dcache.demand_accesses::total     39475194                       # number of demand (read+write) accesses
system.cpu.dcache.overall_accesses::.cpu.data     39475194                       # number of overall (read+write) accesses
system.cpu.dcache.overall_accesses::total     39475194                       # number of overall (read+write) accesses
system.cpu.dcache.ReadReq_miss_rate::.cpu.data     0.000975                       # miss rate for ReadReq accesses
system.cpu.dcache.ReadReq_miss_rate::total     0.000975                       # miss rate for ReadReq accesses
system.cpu.dcache.WriteReq_miss_rate::.cpu.data     0.005584                       # miss rate for WriteReq accesses
system.cpu.dcache.WriteReq_miss_rate::total     0.005584                       # miss rate for WriteReq accesses
system.cpu.dcache.demand_miss_rate::.cpu.data     0.001716                       # miss rate for demand accesses
system.cpu.dcache.demand_miss_rate::total     0.001716                       # miss rate for demand accesses
system.cpu.dcache.overall_miss_rate::.cpu.data     0.001716                       # miss rate for overall accesses
system.cpu.dcache.overall_miss_rate::total     0.001716                       # miss rate for overall accesses
system.cpu.dcache.blocked_cycles::no_mshrs            0                       # number of cycles access was blocked
system.cpu.dcache.blocked_cycles::no_targets            0                       # number of cycles access was blocked
system.cpu.dcache.blocked::no_mshrs                 0                       # number of cycles access was blocked
system.cpu.dcache.blocked::no_targets               0                       # number of cycles access was blocked
system.cpu.dcache.avg_blocked_cycles::no_mshrs          nan                       # average number of cycles each access was blocked
system.cpu.dcache.avg_blocked_cycles::no_targets          nan                       # average number of cycles each access was blocked
system.cpu.dcache.writebacks::.writebacks        66616                       # number of writebacks
system.cpu.dcache.writebacks::total             66616                       # number of writebacks
system.cpu.dcache.replacements                  66897                       # number of replacements
system.cpu.icache.tags.pwrStateResidencyTicks::UNDEFINED  48342882000                       # Cumulative time (in ticks) in various power states
system.cpu.icache.tags.tagsinuse           494.992794                       # Cycle average of tags in use
system.cpu.icache.tags.total_refs                 312                       # Total number of references to valid blocks.
system.cpu.icache.tags.sampled_refs                14                       # Sample count of references to valid blocks.
system.cpu.icache.tags.avg_refs             22.285714                       # Average number of references to valid blocks.
system.cpu.icache.tags.warmup_cycle                 0                       # Cycle when the warmup percentage was hit.
system.cpu.icache.tags.occ_blocks::.cpu.inst   494.992794                       # Average occupied blocks per requestor
system.cpu.icache.tags.occ_percent::.cpu.inst     0.483391                       # Average percentage of cache occupancy
system.cpu.icache.tags.occ_percent::total     0.483391                       # Average percentage of cache occupancy
system.cpu.icache.tags.occ_task_id_blocks::1024          495                       # Occupied blocks per task id
system.cpu.icache.tags.age_task_id_blocks_1024::0            1                       # Occupied blocks per task id
system.cpu.icache.tags.age_task_id_blocks_1024::4          494                       # Occupied blocks per task id
system.cpu.icache.tags.occ_task_id_percent::1024     0.483398                       # Percentage of cache occupancy per task id
system.cpu.icache.tags.tag_accesses         175004766                       # Number of tag accesses
system.cpu.icache.tags.data_accesses        175004766                       # Number of data accesses
system.cpu.icache.pwrStateResidencyTicks::UNDEFINED  48342882000                       # Cumulative time (in ticks) in various power states
system.cpu.icache.ReadReq_hits::.cpu.inst     87502281                       # number of ReadReq hits
system.cpu.icache.ReadReq_hits::total        87502281                       # number of ReadReq hits
system.cpu.icache.demand_hits::.cpu.inst     87502281                       # number of demand (read+write) hits
system.cpu.icache.demand_hits::total         87502281                       # number of demand (read+write) hits
system.cpu.icache.overall_hits::.cpu.inst     87502281                       # number of overall hits
system.cpu.icache.overall_hits::total        87502281                       # number of overall hits
system.cpu.icache.ReadReq_misses::.cpu.inst           68                       # number of ReadReq misses
system.cpu.icache.ReadReq_misses::total            68                       # number of ReadReq misses
system.cpu.icache.demand_misses::.cpu.inst           68                       # number of demand (read+write) misses
system.cpu.icache.demand_misses::total             68                       # number of demand (read+write) misses
system.cpu.icache.overall_misses::.cpu.inst           68                       # number of overall misses
system.cpu.icache.overall_misses::total            68                       # number of overall misses
system.cpu.icache.ReadReq_accesses::.cpu.inst     87502349                       # number of ReadReq accesses(hits+misses)
system.cpu.icache.ReadReq_accesses::total     87502349                       # number of ReadReq accesses(hits+misses)
system.cpu.icache.demand_accesses::.cpu.inst     87502349                       # number of demand (read+write) accesses
system.cpu.icache.demand_accesses::total     87502349                       # number of demand (read+write) accesses
system.cpu.icache.overall_accesses::.cpu.inst     87502349                       # number of overall (read+write) accesses
system.cpu.icache.overall_accesses::total     87502349                       # number of overall (read+write) accesses
system.cpu.icache.ReadReq_miss_rate::.cpu.inst     0.000001                       # miss rate for ReadReq accesses
system.cpu.icache.ReadReq_miss_rate::total     0.000001                       # miss rate for ReadReq accesses
system.cpu.icache.demand_miss_rate::.cpu.inst     0.000001                       # miss rate for demand accesses
system.cpu.icache.demand_miss_rate::total     0.000001                       # miss rate for demand accesses
system.cpu.icache.overall_miss_rate::.cpu.inst     0.000001                       # miss rate for overall accesses
system.cpu.icache.overall_miss_rate::total     0.000001                       # miss rate for overall accesses
system.cpu.icache.blocked_cycles::no_mshrs            0                       # number of cycles access was blocked
system.cpu.icache.blocked_cycles::no_targets            0                       # number of cycles access was blocked
system.cpu.icache.blocked::no_mshrs                 0                       # number of cycles access was blocked
system.cpu.icache.blocked::no_targets               0                       # number of cycles access was blocked
system.cpu.icache.avg_blocked_cycles::no_mshrs          nan                       # average number of cycles each access was blocked
system.cpu.icache.avg_blocked_cycles::no_targets          nan                       # average number of cycles each access was blocked
system.cpu.icache.writebacks::.writebacks           14                       # number of writebacks
system.cpu.icache.writebacks::total                14                       # number of writebacks
system.cpu.icache.replacements                     14                       # number of replacements
system.l2.tags.pwrStateResidencyTicks::UNDEFINED  48342882000                       # Cumulative time (in ticks) in various power states
system.l2.tags.tagsinuse                 25106.677809                       # Cycle average of tags in use
system.l2.tags.total_refs                       70201                       # Total number of references to valid blocks.
system.l2.tags.sampled_refs                     35319                       # Sample count of references to valid blocks.
system.l2.tags.avg_refs                      1.987627                       # Average number of references to valid blocks.
system.l2.tags.warmup_cycle                         0                       # Cycle when the warmup percentage was hit.
system.l2.tags.occ_blocks::.writebacks       5.624540                       # Average occupied blocks per requestor
system.l2.tags.occ_blocks::.cpu.inst       225.429219                       # Average occupied blocks per requestor
system.l2.tags.occ_blocks::.cpu.data     24875.624051                       # Average occupied blocks per requestor
system.l2.tags.occ_percent::.writebacks      0.000172                       # Average percentage of cache occupancy
system.l2.tags.occ_percent::.cpu.inst        0.006880                       # Average percentage of cache occupancy
system.l2.tags.occ_percent::.cpu.data        0.759144                       # Average percentage of cache occupancy
system.l2.tags.occ_percent::total            0.766195                       # Average percentage of cache occupancy
system.l2.tags.occ_task_id_blocks::1024         32768                       # Occupied blocks per task id
system.l2.tags.age_task_id_blocks_1024::0           27                       # Occupied blocks per task id
system.l2.tags.age_task_id_blocks_1024::1          115                       # Occupied blocks per task id
system.l2.tags.age_task_id_blocks_1024::2         1254                       # Occupied blocks per task id
system.l2.tags.age_task_id_blocks_1024::3        12559                       # Occupied blocks per task id
system.l2.tags.age_task_id_blocks_1024::4        18813                       # Occupied blocks per task id
system.l2.tags.occ_task_id_percent::1024            1                       # Percentage of cache occupancy per task id
system.l2.tags.tag_accesses                   1144770                       # Number of tag accesses
system.l2.tags.data_accesses                  1144770                       # Number of data accesses
system.l2.pwrStateResidencyTicks::UNDEFINED  48342882000                       # Cumulative time (in ticks) in various power states
system.l2.WritebackDirty_hits::.writebacks        66616                       # number of WritebackDirty hits
system.l2.WritebackDirty_hits::total            66616                       # number of WritebackDirty hits
system.l2.WritebackClean_hits::.writebacks           14                       # number of WritebackClean hits
system.l2.WritebackClean_hits::total               14                       # number of WritebackClean hits
system.l2.ReadExReq_hits::.cpu.data                42                       # number of ReadExReq hits
system.l2.ReadExReq_hits::total                    42                       # number of ReadExReq hits
system.l2.ReadCleanReq_hits::.cpu.inst              7                       # number of ReadCleanReq hits
system.l2.ReadCleanReq_hits::total                  7                       # number of ReadCleanReq hits
system.l2.ReadSharedReq_hits::.cpu.data           295                       # number of ReadSharedReq hits
system.l2.ReadSharedReq_hits::total               295                       # number of ReadSharedReq hits
system.l2.demand_hits::.cpu.inst                    7                       # number of demand (read+write) hits
system.l2.demand_hits::.cpu.data                  337                       # number of demand (read+write) hits
system.l2.demand_hits::total                      344                       # number of demand (read+write) hits
system.l2.overall_hits::.cpu.inst                   7                       # number of overall hits
system.l2.overall_hits::.cpu.data                 337                       # number of overall hits
system.l2.overall_hits::total                     344                       # number of overall hits
system.l2.ReadExReq_misses::.cpu.data           35369                       # number of ReadExReq misses
system.l2.ReadExReq_misses::total               35369                       # number of ReadExReq misses
system.l2.ReadCleanReq_misses::.cpu.inst           61                       # number of ReadCleanReq misses
system.l2.ReadCleanReq_misses::total               61                       # number of ReadCleanReq misses
system.l2.ReadSharedReq_misses::.cpu.data        32020                       # number of ReadSharedReq misses
system.l2.ReadSharedReq_misses::total           32020                       # number of ReadSharedReq misses
system.l2.demand_misses::.cpu.inst                 61                       # number of demand (read+write) misses
system.l2.demand_misses::.cpu.data              67389                       # number of demand (read+write) misses
system.l2.demand_misses::total                  67450                       # number of demand (read+write) misses
system.l2.overall_misses::.cpu.inst                61                       # number of overall misses
system.l2.overall_misses::.cpu.data             67389                       # number of overall misses
system.l2.overall_misses::total                 67450                       # number of overall misses
system.l2.WritebackDirty_accesses::.writebacks        66616                       # number of WritebackDirty accesses(hits+misses)
system.l2.WritebackDirty_accesses::total        66616                       # number of WritebackDirty accesses(hits+misses)
system.l2.WritebackClean_accesses::.writebacks           14                       # number of WritebackClean accesses(hits+misses)
system.l2.WritebackClean_accesses::total           14                       # number of WritebackClean accesses(hits+misses)
system.l2.ReadExReq_accesses::.cpu.data         35411                       # number of ReadExReq accesses(hits+misses)
system.l2.ReadExReq_accesses::total             35411                       # number of ReadExReq accesses(hits+misses)
system.l2.ReadCleanReq_accesses::.cpu.inst           68                       # number of ReadCleanReq accesses(hits+misses)
system.l2.ReadCleanReq_accesses::total             68                       # number of ReadCleanReq accesses(hits+misses)
system.l2.ReadSharedReq_accesses::.cpu.data        32315                       # number of ReadSharedReq accesses(hits+misses)
system.l2.ReadSharedReq_accesses::total         32315                       # number of ReadSharedReq accesses(hits+misses)
system.l2.demand_accesses::.cpu.inst               68                       # number of demand (read+write) accesses
system.l2.demand_accesses::.cpu.data            67726                       # number of demand (read+write) accesses
system.l2.demand_accesses::total                67794                       # number of demand (read+write) accesses
system.l2.overall_accesses::.cpu.inst              68                       # number of overall (read+write) accesses
system.l2.overall_accesses::.cpu.data           67726                       # number of overall (read+write) accesses
system.l2.overall_accesses::total               67794                       # number of overall (read+write) accesses
system.l2.ReadExReq_miss_rate::.cpu.data     0.998814                       # miss rate for ReadExReq accesses
system.l2.ReadExReq_miss_rate::total         0.998814                       # miss rate for ReadExReq accesses
system.l2.ReadCleanReq_miss_rate::.cpu.inst     0.897059                       # miss rate for ReadCleanReq accesses
system.l2.ReadCleanReq_miss_rate::total      0.897059                       # miss rate for ReadCleanReq accesses
system.l2.ReadSharedReq_miss_rate::.cpu.data     0.990871                       # miss rate for ReadSharedReq accesses
system.l2.ReadSharedReq_miss_rate::total     0.990871                       # miss rate for ReadSharedReq accesses
system.l2.demand_miss_rate::.cpu.inst        0.897059                       # miss rate for demand accesses
system.l2.demand_miss_rate::.cpu.data        0.995024                       # miss rate for demand accesses
system.l2.demand_miss_rate::total            0.994926                       # miss rate for demand accesses
system.l2.overall_miss_rate::.cpu.inst       0.897059                       # miss rate for overall accesses
system.l2.overall_miss_rate::.cpu.data       0.995024                       # miss rate for overall accesses
system.l2.overall_miss_rate::total           0.994926                       # miss rate for overall accesses
system.l2.blocked_cycles::no_mshrs                  0                       # number of cycles access was blocked
system.l2.blocked_cycles::no_targets                0                       # number of cycles access was blocked
system.l2.blocked::no_mshrs                         0                       # number of cycles access was blocked
system.l2.blocked::no_targets                       0                       # number of cycles access was blocked
system.l2.avg_blocked_cycles::no_mshrs            nan                       # average number of cycles each access was blocked
system.l2.avg_blocked_cycles::no_targets          nan                       # average number of cycles each access was blocked
system.l2.writebacks::.writebacks               34700                       # number of writebacks
system.l2.writebacks::total                     34700                       # number of writebacks
system.l2.replacements                          35319                       # number of replacements
system.membus.snoop_filter.tot_requests        102248                       # Total number of requests made to the snoop filter.
system.membus.snoop_filter.hit_single_requests        34799                       # Number of requests hitting in the snoop filter with a single holder of the requested data.
system.membus.snoop_filter.hit_multi_requests            0                       # Number of requests hitting in the snoop filter with multiple (>1) holders of the requested data.
system.membus.snoop_filter.tot_snoops               0                       # Total number of snoops made to the snoop filter.
system.membus.snoop_filter.hit_single_snoops            0                       # Number of snoops hitting in the snoop filter with a single holder of the requested data.
system.membus.snoop_filter.hit_multi_snoops            0                       # Number of snoops hitting in the snoop filter with multiple (>1) holders of the requested data.
system.membus.pwrStateResidencyTicks::UNDEFINED  48342882000                       # Cumulative time (in ticks) in various power states
system.membus.trans_dist::ReadResp              32081                       # Transaction distribution
system.membus.trans_dist::WritebackDirty        34700                       # Transaction distribution
system.membus.trans_dist::CleanEvict               98                       # Transaction distribution
system.membus.trans_dist::ReadExReq             35369                       # Transaction distribution
system.membus.trans_dist::ReadExResp            35369                       # Transaction distribution
system.membus.trans_dist::ReadSharedReq         32081                       # Transaction distribution
system.membus.pkt_count_system.l2.mem_side::system.mem_ctrls.port       169698                       # Packet count per connected master and slave (bytes)
system.membus.pkt_count::total                 169698                       # Packet count per connected master and slave (bytes)
system.membus.pkt_size_system.l2.mem_side::system.mem_ctrls.port      6537600                       # Cumulative packet size per connected master and slave (bytes)
system.membus.pkt_size::total                 6537600                       # Cumulative packet size per connected master and slave (bytes)
system.membus.snoops                                0                       # Total snoops (count)
system.membus.snoopTraffic                          0                       # Total snoop traffic (bytes)
system.membus.snoop_fanout::samples             67450                       # Request fanout histogram
system.membus.snoop_fanout::mean                    0                       # Request fanout histogram
system.membus.snoop_fanout::stdev                   0                       # Request fanout histogram
system.membus.snoop_fanout::underflows              0      0.00%      0.00% # Request fanout histogram
system.membus.snoop_fanout::0                   67450    100.00%    100.00% # Request fanout histogram
[...]
system.cpu.icache.demand_accesses::.cpu.inst     87502974                       # number of demand (read+write) accesses
system.cpu.icache.demand_accesses::total     87502974                       # number of demand (read+write) accesses
system.cpu.icache.overall_accesses::.cpu.inst     87502974                       # number of overall (read+write) accesses
system.cpu.icache.overall_accesses::total     87502974                       # number of overall (read+write) accesses
system.cpu.icache.ReadReq_miss_rate::.cpu.inst     0.000001                       # miss rate for ReadReq accesses
system.cpu.icache.ReadReq_miss_rate::total     0.000001                       # miss rate for ReadReq accesses
system.cpu.icache.demand_miss_rate::.cpu.inst     0.000001                       # miss rate for demand accesses
system.cpu.icache.demand_miss_rate::total     0.000001                       # miss rate for demand accesses
system.cpu.icache.overall_miss_rate::.cpu.inst     0.000001                       # miss rate for overall accesses
system.cpu.icache.overall_miss_rate::total     0.000001                       # miss rate for overall accesses
system.cpu.icache.blocked_cycles::no_mshrs            0                       # number of cycles access was blocked
system.cpu.icache.blocked_cycles::no_targets            0                       # number of cycles access was blocked
system.cpu.icache.blocked::no_mshrs                 0                       # number of cycles access was blocked
system.cpu.icache.blocked::no_targets               0                       # number of cycles access was blocked
system.cpu.icache.avg_blocked_cycles::no_mshrs          nan                       # average number of cycles each access was blocked
system.cpu.icache.avg_blocked_cycles::no_targets          nan                       # average number of cycles each access was blocked
system.cpu.icache.writebacks::.writebacks           21                       # number of writebacks
system.cpu.icache.writebacks::total                21                       # number of writebacks
system.cpu.icache.replacements                     21                       # number of replacements
system.l2.tags.pwrStateResidencyTicks::UNDEFINED  48343256500                       # Cumulative time (in ticks) in various power states
system.l2.tags.tagsinuse                 25106.737166                       # Cycle average of tags in use
system.l2.tags.total_refs                      135421                       # Total number of references to valid blocks.
system.l2.tags.sampled_refs                     68156                       # Sample count of references to valid blocks.
system.l2.tags.avg_refs                      1.986927                       # Average number of references to valid blocks.
system.l2.tags.warmup_cycle                         0                       # Cycle when the warmup percentage was hit.
system.l2.tags.occ_blocks::.writebacks       5.624634                       # Average occupied blocks per requestor
system.l2.tags.occ_blocks::.cpu.inst       225.427609                       # Average occupied blocks per requestor
system.l2.tags.occ_blocks::.cpu.data     24875.684923                       # Average occupied blocks per requestor
system.l2.tags.occ_percent::.writebacks      0.000172                       # Average percentage of cache occupancy
system.l2.tags.occ_percent::.cpu.inst        0.006880                       # Average percentage of cache occupancy
system.l2.tags.occ_percent::.cpu.data        0.759146                       # Average percentage of cache occupancy
system.l2.tags.occ_percent::total            0.766197                       # Average percentage of cache occupancy
system.l2.tags.occ_task_id_blocks::1024         32768                       # Occupied blocks per task id
system.l2.tags.age_task_id_blocks_1024::0           96                       # Occupied blocks per task id
system.l2.tags.age_task_id_blocks_1024::1          115                       # Occupied blocks per task id
system.l2.tags.age_task_id_blocks_1024::2         1253                       # Occupied blocks per task id
system.l2.tags.age_task_id_blocks_1024::3        12560                       # Occupied blocks per task id
system.l2.tags.age_task_id_blocks_1024::4        18744                       # Occupied blocks per task id
system.l2.tags.occ_task_id_percent::1024            1                       # Percentage of cache occupancy per task id
system.l2.tags.tag_accesses                   1145615                       # Number of tag accesses
system.l2.tags.data_accesses                  1145615                       # Number of data accesses
system.l2.pwrStateResidencyTicks::UNDEFINED  48343256500                       # Cumulative time (in ticks) in various power states
system.l2.WritebackDirty_hits::.writebacks        66643                       # number of WritebackDirty hits
system.l2.WritebackDirty_hits::total            66643                       # number of WritebackDirty hits
system.l2.WritebackClean_hits::.writebacks           21                       # number of WritebackClean hits
system.l2.WritebackClean_hits::total               21                       # number of WritebackClean hits
system.l2.ReadExReq_hits::.cpu.data                42                       # number of ReadExReq hits
system.l2.ReadExReq_hits::total                    42                       # number of ReadExReq hits
system.l2.ReadCleanReq_hits::.cpu.inst              7                       # number of ReadCleanReq hits
system.l2.ReadCleanReq_hits::total                  7                       # number of ReadCleanReq hits
system.l2.ReadSharedReq_hits::.cpu.data           296                       # number of ReadSharedReq hits
system.l2.ReadSharedReq_hits::total               296                       # number of ReadSharedReq hits
system.l2.demand_hits::.cpu.inst                    7                       # number of demand (read+write) hits
system.l2.demand_hits::.cpu.data                  338                       # number of demand (read+write) hits
system.l2.demand_hits::total                      345                       # number of demand (read+write) hits
system.l2.overall_hits::.cpu.inst                   7                       # number of overall hits
system.l2.overall_hits::.cpu.data                 338                       # number of overall hits
system.l2.overall_hits::total                     345                       # number of overall hits
system.l2.ReadExReq_misses::.cpu.data           35369                       # number of ReadExReq misses
system.l2.ReadExReq_misses::total               35369                       # number of ReadExReq misses
system.l2.ReadCleanReq_misses::.cpu.inst           97                       # number of ReadCleanReq misses
system.l2.ReadCleanReq_misses::total               97                       # number of ReadCleanReq misses
system.l2.ReadSharedReq_misses::.cpu.data        32046                       # number of ReadSharedReq misses
system.l2.ReadSharedReq_misses::total           32046                       # number of ReadSharedReq misses
system.l2.demand_misses::.cpu.inst                 97                       # number of demand (read+write) misses
system.l2.demand_misses::.cpu.data              67415                       # number of demand (read+write) misses
system.l2.demand_misses::total                  67512                       # number of demand (read+write) misses
system.l2.overall_misses::.cpu.inst                97                       # number of overall misses
system.l2.overall_misses::.cpu.data             67415                       # number of overall misses
system.l2.overall_misses::total                 67512                       # number of overall misses
system.l2.WritebackDirty_accesses::.writebacks        66643                       # number of WritebackDirty accesses(hits+misses)
system.l2.WritebackDirty_accesses::total        66643                       # number of WritebackDirty accesses(hits+misses)
system.l2.WritebackClean_accesses::.writebacks           21                       # number of WritebackClean accesses(hits+misses)
system.l2.WritebackClean_accesses::total           21                       # number of WritebackClean accesses(hits+misses)
system.l2.ReadExReq_accesses::.cpu.data         35411                       # number of ReadExReq accesses(hits+misses)
system.l2.ReadExReq_accesses::total             35411                       # number of ReadExReq accesses(hits+misses)
system.l2.ReadCleanReq_accesses::.cpu.inst          104                       # number of ReadCleanReq accesses(hits+misses)
system.l2.ReadCleanReq_accesses::total            104                       # number of ReadCleanReq accesses(hits+misses)
system.l2.ReadSharedReq_accesses::.cpu.data        32342                       # number of ReadSharedReq accesses(hits+misses)
system.l2.ReadSharedReq_accesses::total         32342                       # number of ReadSharedReq accesses(hits+misses)
system.l2.demand_accesses::.cpu.inst              104                       # number of demand (read+write) accesses
system.l2.demand_accesses::.cpu.data            67753                       # number of demand (read+write) accesses
system.l2.demand_accesses::total                67857                       # number of demand (read+write) accesses
system.l2.overall_accesses::.cpu.inst             104                       # number of overall (read+write) accesses
system.l2.overall_accesses::.cpu.data           67753                       # number of overall (read+write) accesses
system.l2.overall_accesses::total               67857                       # number of overall (read+write) accesses
system.l2.ReadExReq_miss_rate::.cpu.data     0.998814                       # miss rate for ReadExReq accesses
system.l2.ReadExReq_miss_rate::total         0.998814                       # miss rate for ReadExReq accesses
system.l2.ReadCleanReq_miss_rate::.cpu.inst     0.932692                       # miss rate for ReadCleanReq accesses
system.l2.ReadCleanReq_miss_rate::total      0.932692                       # miss rate for ReadCleanReq accesses
system.l2.ReadSharedReq_miss_rate::.cpu.data     0.990848                       # miss rate for ReadSharedReq accesses
system.l2.ReadSharedReq_miss_rate::total     0.990848                       # miss rate for ReadSharedReq accesses
system.l2.demand_miss_rate::.cpu.inst        0.932692                       # miss rate for demand accesses
system.l2.demand_miss_rate::.cpu.data        0.995011                       # miss rate for demand accesses
system.l2.demand_miss_rate::total            0.994916                       # miss rate for demand accesses
system.l2.overall_miss_rate::.cpu.inst       0.932692                       # miss rate for overall accesses
system.l2.overall_miss_rate::.cpu.data       0.995011                       # miss rate for overall accesses
system.l2.overall_miss_rate::total           0.994916                       # miss rate for overall accesses
system.l2.blocked_cycles::no_mshrs                  0                       # number of cycles access was blocked
system.l2.blocked_cycles::no_targets                0                       # number of cycles access was blocked
system.l2.blocked::no_mshrs                         0                       # number of cycles access was blocked
system.l2.blocked::no_targets                       0                       # number of cycles access was blocked
system.l2.avg_blocked_cycles::no_mshrs            nan                       # average number of cycles each access was blocked
system.l2.avg_blocked_cycles::no_targets          nan                       # average number of cycles each access was blocked
system.l2.writebacks::.writebacks               34769                       # number of writebacks
system.l2.writebacks::total                     34769                       # number of writebacks
system.l2.replacements                          35388                       # number of replacements
system.membus.snoop_filter.tot_requests        102379                       # Total number of requests made to the snoop filter.
system.membus.snoop_filter.hit_single_requests        34873                       # Number of requests hitting in the snoop filter with a single holder of the requested data.
system.membus.snoop_filter.hit_multi_requests            0                       # Number of requests hitting in the snoop filter with multiple (>1) holders of the requested data.
system.membus.snoop_filter.tot_snoops               0                       # Total number of snoops made to the snoop filter.
system.membus.snoop_filter.hit_single_snoops            0                       # Number of snoops hitting in the snoop filter with a single holder of the requested data.
system.membus.snoop_filter.hit_multi_snoops            0                       # Number of snoops hitting in the snoop filter with multiple (>1) holders of the requested data.
system.membus.pwrStateResidencyTicks::UNDEFINED  48343256500                       # Cumulative time (in ticks) in various power states
system.membus.trans_dist::ReadResp              32143                       # Transaction distribution
system.membus.trans_dist::WritebackDirty        34769                       # Transaction distribution
system.membus.trans_dist::CleanEvict               98                       # Transaction distribution
system.membus.trans_dist::ReadExReq             35369                       # Transaction distribution
system.membus.trans_dist::ReadExResp            35369                       # Transaction distribution
system.membus.trans_dist::ReadSharedReq         32143                       # Transaction distribution
system.membus.pkt_count_system.l2.mem_side::system.mem_ctrls.port       169891                       # Packet count per connected master and slave (bytes)
system.membus.pkt_count::total                 169891                       # Packet count per connected master and slave (bytes)
system.membus.pkt_size_system.l2.mem_side::system.mem_ctrls.port      6545984                       # Cumulative packet size per connected master and slave (bytes)
system.membus.pkt_size::total                 6545984                       # Cumulative packet size per connected master and slave (bytes)
system.membus.snoops                                0                       # Total snoops (count)
system.membus.snoopTraffic                          0                       # Total snoop traffic (bytes)
system.membus.snoop_fanout::samples             67512                       # Request fanout histogram
system.membus.snoop_fanout::mean                    0                       # Request fanout histogram
system.membus.snoop_fanout::stdev                   0                       # Request fanout histogram
system.membus.snoop_fanout::underflows              0      0.00%      0.00% # Request fanout histogram
system.membus.snoop_fanout::0                   67512    100.00%    100.00% # Request fanout histogram
system.membus.snoop_fanout::1                       0      0.00%    100.00% # Request fanout histogram
system.membus.snoop_fanout::overflows               0      0.00%    100.00% # Request fanout histogram
system.membus.snoop_fanout::min_value               0                       # Request fanout histogram
system.membus.snoop_fanout::max_value               0                       # Request fanout histogram
system.membus.snoop_fanout::total               67512                       # Request fanout histogram
system.tol2bus.snoop_filter.tot_requests       134802                       # Total number of requests made to the snoop filter.
system.tol2bus.snoop_filter.hit_single_requests        66929                       # Number of requests hitting in the snoop filter with a single holder of the requested data.
system.tol2bus.snoop_filter.hit_multi_requests           42                       # Number of requests hitting in the snoop filter with multiple (>1) holders of the requested data.
system.tol2bus.snoop_filter.tot_snoops            524                       # Total number of snoops made to the snoop filter.
system.tol2bus.snoop_filter.hit_single_snoops          522                       # Number of snoops hitting in the snoop filter with a single holder of the requested data.
system.tol2bus.snoop_filter.hit_multi_snoops            2                       # Number of snoops hitting in the snoop filter with multiple (>1) holders of the requested data.
system.tol2bus.pwrStateResidencyTicks::UNDEFINED  48343256500                       # Cumulative time (in ticks) in various power states
system.tol2bus.trans_dist::ReadResp             32446                       # Transaction distribution
system.tol2bus.trans_dist::WritebackDirty        66643                       # Transaction distribution
system.tol2bus.trans_dist::WritebackClean           21                       # Transaction distribution
system.tol2bus.trans_dist::CleanEvict             281                       # Transaction distribution
system.tol2bus.trans_dist::ReadExReq            35411                       # Transaction distribution
system.tol2bus.trans_dist::ReadExResp           35411                       # Transaction distribution
system.tol2bus.trans_dist::ReadCleanReq           104                       # Transaction distribution
system.tol2bus.trans_dist::ReadSharedReq        32342                       # Transaction distribution
system.tol2bus.pkt_count_system.cpu.icache.mem_side::system.l2.cpu_side          229                       # Packet count per connected master and slave (bytes)
system.tol2bus.pkt_count_system.cpu.dcache.mem_side::system.l2.cpu_side       202430                       # Packet count per connected master and slave (bytes)
system.tol2bus.pkt_count::total                202659                       # Packet count per connected master and slave (bytes)
system.tol2bus.pkt_size_system.cpu.icache.mem_side::system.l2.cpu_side         8000                       # Cumulative packet size per connected master and slave (bytes)
system.tol2bus.pkt_size_system.cpu.dcache.mem_side::system.l2.cpu_side      8601344                       # Cumulative packet size per connected master and slave (bytes)
system.tol2bus.pkt_size::total                8609344                       # Cumulative packet size per connected master and slave (bytes)
system.tol2bus.snoops                           35388                       # Total snoops (count)
system.tol2bus.snoopTraffic                   2225216                       # Total snoop traffic (bytes)
system.tol2bus.snoop_fanout::samples           103245                       # Request fanout histogram
system.tol2bus.snoop_fanout::mean            0.005347                       # Request fanout histogram
system.tol2bus.snoop_fanout::stdev           0.073190                       # Request fanout histogram
system.tol2bus.snoop_fanout::underflows             0      0.00%      0.00% # Request fanout histogram
system.tol2bus.snoop_fanout::0                 102695     99.47%     99.47% # Request fanout histogram
system.tol2bus.snoop_fanout::1                    548      0.53%    100.00% # Request fanout histogram
system.tol2bus.snoop_fanout::2                      2      0.00%    100.00% # Request fanout histogram
system.tol2bus.snoop_fanout::overflows              0      0.00%    100.00% # Request fanout histogram
system.tol2bus.snoop_fanout::min_value              0                       # Request fanout histogram
system.tol2bus.snoop_fanout::max_value              2                       # Request fanout histogram
system.tol2bus.snoop_fanout::total             103245                       # Request fanout histogram

---------- End Simulation Statistics   ----------
