
---------- Begin Simulation Statistics ----------
sim_seconds                                  0.021961                       # Number of seconds simulated
sim_ticks                                 21961198000                       # Number of ticks simulated
final_tick                                21997144000                       # Number of ticks from beginning of simulation (restored from checkpoints and never reset)
sim_freq                                 1000000000000                       # Frequency of simulated ticks
host_inst_rate                                 220851                       # Simulator instruction rate (inst/s)
host_op_rate                                   244002                       # Simulator op (including micro ops) rate (op/s)
host_tick_rate                               55422675                       # Simulator tick rate (ticks/s)
host_mem_usage                                 813324                       # Number of bytes of host memory used
host_seconds                                   396.25                       # Real time elapsed on the host
sim_insts                                    87512087                       # Number of instructions simulated
sim_ops                                      96685734                       # Number of ops (including micro ops) simulated
system.voltage_domain.voltage                       1                       # Voltage in Volts
system.clk_domain.clock                          1000                       # Clock period in ticks
system.mem_ctrls.pwrStateResidencyTicks::UNDEFINED  21997144000                       # Cumulative time (in ticks) in various power states
system.mem_ctrls.bytes_read::.cpu.inst           4352                       # Number of bytes read from this memory
system.mem_ctrls.bytes_read::.cpu.data        4312512                       # Number of bytes read from this memory
system.mem_ctrls.bytes_read::total            4316864                       # Number of bytes read from this memory
system.mem_ctrls.bytes_inst_read::.cpu.inst         4352                       # Number of instructions bytes read from this memory
system.mem_ctrls.bytes_inst_read::total          4352                       # Number of instructions bytes read from this memory
system.mem_ctrls.bytes_written::.writebacks      2223104                       # Number of bytes written to this memory
system.mem_ctrls.bytes_written::total         2223104                       # Number of bytes written to this memory
system.mem_ctrls.num_reads::.cpu.inst              68                       # Number of read requests responded to by this memory
system.mem_ctrls.num_reads::.cpu.data           67383                       # Number of read requests responded to by this memory
system.mem_ctrls.num_reads::total               67451                       # Number of read requests responded to by this memory
system.mem_ctrls.num_writes::.writebacks        34736                       # Number of write requests responded to by this memory
system.mem_ctrls.num_writes::total              34736                       # Number of write requests responded to by this memory
system.mem_ctrls.bw_read::.cpu.inst            198168                       # Total read bandwidth from this memory (bytes/s)
system.mem_ctrls.bw_read::.cpu.data         196369615                       # Total read bandwidth from this memory (bytes/s)
system.mem_ctrls.bw_read::total             196567783                       # Total read bandwidth from this memory (bytes/s)
system.mem_ctrls.bw_inst_read::.cpu.inst       198168                       # Instruction read bandwidth from this memory (bytes/s)
system.mem_ctrls.bw_inst_read::total           198168                       # Instruction read bandwidth from this memory (bytes/s)
system.mem_ctrls.bw_write::.writebacks      101228722                       # Write bandwidth from this memory (bytes/s)
system.mem_ctrls.bw_write::total            101228722                       # Write bandwidth from this memory (bytes/s)
system.mem_ctrls.bw_total::.writebacks      101228722                       # Total bandwidth to/from this memory (bytes/s)
system.mem_ctrls.bw_total::.cpu.inst           198168                       # Total bandwidth to/from this memory (bytes/s)
system.mem_ctrls.bw_total::.cpu.data        196369615                       # Total bandwidth to/from this memory (bytes/s)
system.mem_ctrls.bw_total::total            297796505                       # Total bandwidth to/from this memory (bytes/s)
system.mem_ctrls.avgPriority_.writebacks::samples     34736.00                       # Average QoS priority value for accepted requests
system.mem_ctrls.avgPriority_.cpu.inst::samples        68.00                       # Average QoS priority value for accepted requests
system.mem_ctrls.avgPriority_.cpu.data::samples     67383.00                       # Average QoS priority value for accepted requests
system.mem_ctrls.priorityMinLatency      0.000000018750                       # per QoS priority minimum request to response latency (s)
system.mem_ctrls.priorityMaxLatency      0.001745110250                       # per QoS priority maximum request to response latency (s)
system.mem_ctrls.numReadWriteTurnArounds         2039                       # Number of turnarounds from READ to WRITE
system.mem_ctrls.numWriteReadTurnArounds         2039                       # Number of turnarounds from WRITE to READ
system.mem_ctrls.numStayReadState              171143                       # Number of times bus staying in READ state
system.mem_ctrls.numStayWriteState              32750                       # Number of times bus staying in WRITE state
system.mem_ctrls.readReqs                       67451                       # Number of read requests accepted
system.mem_ctrls.writeReqs                      34736                       # Number of write requests accepted
system.mem_ctrls.readBursts                     67451                       # Number of DRAM read bursts, including those serviced by the write queue
system.mem_ctrls.writeBursts                    34736                       # Number of DRAM write bursts, including those merged in the write queue
system.mem_ctrls.bytesReadDRAM                4316864                       # Total number of bytes read from DRAM
system.mem_ctrls.bytesReadWrQ                       0                       # Total number of bytes read from write queue
system.mem_ctrls.bytesWritten                 2221824                       # Total number of bytes written to DRAM
system.mem_ctrls.bytesReadSys                 4316864                       # Total read bytes from the system interface side
system.mem_ctrls.bytesWrittenSys              2223104                       # Total written bytes from the system interface side
system.mem_ctrls.servicedByWrQ                      0                       # Number of DRAM read bursts serviced by the write queue
system.mem_ctrls.mergedWrBursts                     0                       # Number of DRAM write bursts merged with an existing one
system.mem_ctrls.neitherReadNorWriteReqs            0                       # Number of requests that are neither read nor write
system.mem_ctrls.perBankRdBursts::0              4261                       # Per bank write bursts
system.mem_ctrls.perBankRdBursts::1              4240                       # Per bank write bursts
system.mem_ctrls.perBankRdBursts::2              4189                       # Per bank write bursts
system.mem_ctrls.perBankRdBursts::3              4241                       # Per bank write bursts
system.mem_ctrls.perBankRdBursts::4              4225                       # Per bank write bursts
system.mem_ctrls.perBankRdBursts::5              4224                       # Per bank write bursts
system.mem_ctrls.perBankRdBursts::6              4225                       # Per bank write bursts
system.mem_ctrls.perBankRdBursts::7              4224                       # Per bank write bursts
system.mem_ctrls.perBankRdBursts::8              4224                       # Per bank write bursts
system.mem_ctrls.perBankRdBursts::9              4227                       # Per bank write bursts
system.mem_ctrls.perBankRdBursts::10             4226                       # Per bank write bursts
system.mem_ctrls.perBankRdBursts::11             4224                       # Per bank write bursts
system.mem_ctrls.perBankRdBursts::12             4231                       # Per bank write bursts
system.mem_ctrls.perBankRdBursts::13             4105                       # Per bank write bursts
system.mem_ctrls.perBankRdBursts::14             4161                       # Per bank write bursts
system.mem_ctrls.perBankRdBursts::15             4224                       # Per bank write bursts
system.mem_ctrls.perBankWrBursts::0              2183                       # Per bank write bursts
system.mem_ctrls.perBankWrBursts::1              2198                       # Per bank write bursts
system.mem_ctrls.perBankWrBursts::2              2127                       # Per bank write bursts
system.mem_ctrls.perBankWrBursts::3              2181                       # Per bank write bursts
system.mem_ctrls.perBankWrBursts::4              2177                       # Per bank write bursts
system.mem_ctrls.perBankWrBursts::5              2176                       # Per bank write bursts
system.mem_ctrls.perBankWrBursts::6              2176                       # Per bank write bursts
system.mem_ctrls.perBankWrBursts::7              2176                       # Per bank write bursts
system.mem_ctrls.perBankWrBursts::8              2178                       # Per bank write bursts
system.mem_ctrls.perBankWrBursts::9              2184                       # Per bank write bursts
system.mem_ctrls.perBankWrBursts::10             2182                       # Per bank write bursts
system.mem_ctrls.perBankWrBursts::11             2177                       # Per bank write bursts
system.mem_ctrls.perBankWrBursts::12             2180                       # Per bank write bursts
system.mem_ctrls.perBankWrBursts::13             2067                       # Per bank write bursts
system.mem_ctrls.perBankWrBursts::14             2158                       # Per bank write bursts
system.mem_ctrls.perBankWrBursts::15             2196                       # Per bank write bursts
system.mem_ctrls.numRdRetry                         0                       # Number of times read queue was full causing retry
system.mem_ctrls.numWrRetry                         0                       # Number of times write queue was full causing retry
system.mem_ctrls.totGap                   21961291000                       # Total gap between requests
system.mem_ctrls.readPktSize::0                     0                       # Read request sizes (log2)
system.mem_ctrls.readPktSize::1                     0                       # Read request sizes (log2)
system.mem_ctrls.readPktSize::2                     0                       # Read request sizes (log2)
system.mem_ctrls.readPktSize::3                     0                       # Read request sizes (log2)
system.mem_ctrls.readPktSize::4                     0                       # Read request sizes (log2)
system.mem_ctrls.readPktSize::5                     0                       # Read request sizes (log2)
system.mem_ctrls.readPktSize::6                 67451                       # Read request sizes (log2)
system.mem_ctrls.writePktSize::0                    0                       # Write request sizes (log2)
system.mem_ctrls.writePktSize::1                    0                       # Write request sizes (log2)
system.mem_ctrls.writePktSize::2                    0                       # Write request sizes (log2)
system.mem_ctrls.writePktSize::3                    0                       # Write request sizes (log2)
system.mem_ctrls.writePktSize::4                    0                       # Write request sizes (log2)
system.mem_ctrls.writePktSize::5                    0                       # Write request sizes (log2)
system.mem_ctrls.writePktSize::6                34736                       # Write request sizes (log2)
system.mem_ctrls.rdQLenPdf::0                   52047                       # What read queue length does an incoming req see
system.mem_ctrls.rdQLenPdf::1                   15397                       # What read queue length does an incoming req see
system.mem_ctrls.rdQLenPdf::2                       5                       # What read queue length does an incoming req see
system.mem_ctrls.rdQLenPdf::3                       2                       # What read queue length does an incoming req see
system.mem_ctrls.rdQLenPdf::4                       0                       # What read queue length does an incoming req see
system.mem_ctrls.rdQLenPdf::5                       0                       # What read queue length does an incoming req see
system.mem_ctrls.rdQLenPdf::6                       0                       # What read queue length does an incoming req see
system.mem_ctrls.rdQLenPdf::7                       0                       # What read queue length does an incoming req see
system.mem_ctrls.rdQLenPdf::8                       0                       # What read queue length does an incoming req see
system.mem_ctrls.rdQLenPdf::9                       0                       # What read queue length does an incoming req see
system.mem_ctrls.rdQLenPdf::10                      0                       # What read queue length does an incoming req see
system.mem_ctrls.rdQLenPdf::11                      0                       # What read queue length does an incoming req see
system.mem_ctrls.rdQLenPdf::12                      0                       # What read queue length does an incoming req see
system.mem_ctrls.rdQLenPdf::13                      0                       # What read queue length does an incoming req see
system.mem_ctrls.rdQLenPdf::14                      0                       # What read queue length does an incoming req see
system.mem_ctrls.rdQLenPdf::15                      0                       # What read queue length does an incoming req see
system.mem_ctrls.rdQLenPdf::16                      0                       # What read queue length does an incoming req see
system.mem_ctrls.rdQLenPdf::17                      0                       # What read queue length does an incoming req see
system.mem_ctrls.rdQLenPdf::18                      0                       # What read queue length does an incoming req see
system.mem_ctrls.rdQLenPdf::19                      0                       # What read queue length does an incoming req see
system.mem_ctrls.rdQLenPdf::20                      0                       # What read queue length does an incoming req see
system.mem_ctrls.rdQLenPdf::21                      0                       # What read queue length does an incoming req see
system.mem_ctrls.rdQLenPdf::22                      0                       # What read queue length does an incoming req see
system.mem_ctrls.rdQLenPdf::23                      0                       # What read queue length does an incoming req see
system.mem_ctrls.rdQLenPdf::24                      0                       # What read queue length does an incoming req see
system.mem_ctrls.rdQLenPdf::25                      0                       # What read queue length does an incoming req see
system.mem_ctrls.rdQLenPdf::26                      0                       # What read queue length does an incoming req see
system.mem_ctrls.rdQLenPdf::27                      0                       # What read queue length does an incoming req see
system.mem_ctrls.rdQLenPdf::28                      0                       # What read queue length does an incoming req see
system.mem_ctrls.rdQLenPdf::29                      0                       # What read queue length does an incoming req see
system.mem_ctrls.rdQLenPdf::30                      0                       # What read queue length does an incoming req see
system.mem_ctrls.rdQLenPdf::31                      0                       # What read queue length does an incoming req see
system.mem_ctrls.wrQLenPdf::0                       1                       # What write queue length does an incoming req see
system.mem_ctrls.wrQLenPdf::1                       1                       # What write queue length does an incoming req see
system.mem_ctrls.wrQLenPdf::2                       1                       # What write queue length does an incoming req see
system.mem_ctrls.wrQLenPdf::3                       1                       # What write queue length does an incoming req see
system.mem_ctrls.wrQLenPdf::4                       1                       # What write queue length does an incoming req see
system.mem_ctrls.wrQLenPdf::5                       1                       # What write queue length does an incoming req see
system.mem_ctrls.wrQLenPdf::6                       1                       # What write queue length does an incoming req see
system.mem_ctrls.wrQLenPdf::7                       1                       # What write queue length does an incoming req see
system.mem_ctrls.wrQLenPdf::8                       1                       # What write queue length does an incoming req see
system.mem_ctrls.wrQLenPdf::9                       1                       # What write queue length does an incoming req see
system.mem_ctrls.wrQLenPdf::10                      1                       # What write queue length does an incoming req see
system.mem_ctrls.wrQLenPdf::11                      1                       # What write queue length does an incoming req see
system.mem_ctrls.wrQLenPdf::12                      1                       # What write queue length does an incoming req see
system.mem_ctrls.wrQLenPdf::13                      1                       # What write queue length does an incoming req see
system.mem_ctrls.wrQLenPdf::14                      1                       # What write queue length does an incoming req see
system.mem_ctrls.wrQLenPdf::15                   1012                       # What write queue length does an incoming req see
system.mem_ctrls.wrQLenPdf::16                   1036                       # What write queue length does an incoming req see
system.mem_ctrls.wrQLenPdf::17                   1607                       # What write queue length does an incoming req see
system.mem_ctrls.wrQLenPdf::18                   2042                       # What write queue length does an incoming req see
system.mem_ctrls.wrQLenPdf::19                   2044                       # What write queue length does an incoming req see
system.mem_ctrls.wrQLenPdf::20                   2039                       # What write queue length does an incoming req see
system.mem_ctrls.wrQLenPdf::21                   2042                       # What write queue length does an incoming req see
system.mem_ctrls.wrQLenPdf::22                   2039                       # What write queue length does an incoming req see
system.mem_ctrls.wrQLenPdf::23                   2040                       # What write queue length does an incoming req see
system.mem_ctrls.wrQLenPdf::24                   2040                       # What write queue length does an incoming req see
system.mem_ctrls.wrQLenPdf::25                   2043                       # What write queue length does an incoming req see
system.mem_ctrls.wrQLenPdf::26                   2040                       # What write queue length does an incoming req see
system.mem_ctrls.wrQLenPdf::27                   2048                       # What write queue length does an incoming req see
system.mem_ctrls.wrQLenPdf::28                   2052                       # What write queue length does an incoming req see
system.mem_ctrls.wrQLenPdf::29                   2055                       # What write queue length does an incoming req see
system.mem_ctrls.wrQLenPdf::30                   2157                       # What write queue length does an incoming req see
system.mem_ctrls.wrQLenPdf::31                   2051                       # What write queue length does an incoming req see
system.mem_ctrls.wrQLenPdf::32                   2330                       # What write queue length does an incoming req see
system.mem_ctrls.wrQLenPdf::33                      4                       # What write queue length does an incoming req see
system.mem_ctrls.wrQLenPdf::34                      0                       # What write queue length does an incoming req see
system.mem_ctrls.wrQLenPdf::35                      0                       # What write queue length does an incoming req see
system.mem_ctrls.wrQLenPdf::36                      0                       # What write queue length does an incoming req see
system.mem_ctrls.wrQLenPdf::37                      0                       # What write queue length does an incoming req see
system.mem_ctrls.wrQLenPdf::38                      0                       # What write queue length does an incoming req see
system.mem_ctrls.wrQLenPdf::39                      0                       # What write queue length does an incoming req see
system.mem_ctrls.wrQLenPdf::40                      0                       # What write queue length does an incoming req see
system.mem_ctrls.wrQLenPdf::41                      0                       # What write queue length does an incoming req see
system.mem_ctrls.wrQLenPdf::42                      0                       # What write queue length does an incoming req see
system.mem_ctrls.wrQLenPdf::43                      0                       # What write queue length does an incoming req see
system.mem_ctrls.wrQLenPdf::44                      0                       # What write queue length does an incoming req see
system.mem_ctrls.wrQLenPdf::45                      0                       # What write queue length does an incoming req see
system.mem_ctrls.wrQLenPdf::46                      0                       # What write queue length does an incoming req see
system.mem_ctrls.wrQLenPdf::47                      0                       # What write queue length does an incoming req see
system.mem_ctrls.wrQLenPdf::48                      0                       # What write queue length does an incoming req see
system.mem_ctrls.wrQLenPdf::49                      0                       # What write queue length does an incoming req see
system.mem_ctrls.wrQLenPdf::50                      0                       # What write queue length does an incoming req see
system.mem_ctrls.wrQLenPdf::51                      0                       # What write queue length does an incoming req see
system.mem_ctrls.wrQLenPdf::52                      0                       # What write queue length does an incoming req see
system.mem_ctrls.wrQLenPdf::53                      0                       # What write queue length does an incoming req see
system.mem_ctrls.wrQLenPdf::54                      0                       # What write queue length does an incoming req see
system.mem_ctrls.wrQLenPdf::55                      0                       # What write queue length does an incoming req see
system.mem_ctrls.wrQLenPdf::56                      0                       # What write queue length does an incoming req see
system.mem_ctrls.wrQLenPdf::57                      0                       # What write queue length does an incoming req see
system.mem_ctrls.wrQLenPdf::58                      0                       # What write queue length does an incoming req see
system.mem_ctrls.wrQLenPdf::59                      0                       # What write queue length does an incoming req see
system.mem_ctrls.wrQLenPdf::60                      0                       # What write queue length does an incoming req see
system.mem_ctrls.wrQLenPdf::61                      0                       # What write queue length does an incoming req see
system.mem_ctrls.wrQLenPdf::62                      0                       # What write queue length does an incoming req see
system.mem_ctrls.wrQLenPdf::63                      0                       # What write queue length does an incoming req see
system.mem_ctrls.bytesPerActivate::samples        12094                       # Bytes accessed per row activation
system.mem_ctrls.bytesPerActivate::mean    540.835456                       # Bytes accessed per row activation
system.mem_ctrls.bytesPerActivate::gmean   389.300038                       # Bytes accessed per row activation
system.mem_ctrls.bytesPerActivate::stdev   357.261976                       # Bytes accessed per row activation
system.mem_ctrls.bytesPerActivate::0-127          911      7.53%      7.53% # Bytes accessed per row activation
system.mem_ctrls.bytesPerActivate::128-255         2917     24.12%     31.65% # Bytes accessed per row activation
system.mem_ctrls.bytesPerActivate::256-383          996      8.24%     39.89% # Bytes accessed per row activation
system.mem_ctrls.bytesPerActivate::384-511          846      7.00%     46.88% # Bytes accessed per row activation
system.mem_ctrls.bytesPerActivate::512-639          797      6.59%     53.47% # Bytes accessed per row activation
system.mem_ctrls.bytesPerActivate::640-767         1463     12.10%     65.57% # Bytes accessed per row activation
system.mem_ctrls.bytesPerActivate::768-895          965      7.98%     73.55% # Bytes accessed per row activation
system.mem_ctrls.bytesPerActivate::896-1023          507      4.19%     77.74% # Bytes accessed per row activation
system.mem_ctrls.bytesPerActivate::1024-1151         2692     22.26%    100.00% # Bytes accessed per row activation
system.mem_ctrls.bytesPerActivate::total        12094                       # Bytes accessed per row activation
system.mem_ctrls.rdPerTurnAround::samples         2039                       # Reads before turning the bus around for writes
system.mem_ctrls.rdPerTurnAround::mean      33.439922                       # Reads before turning the bus around for writes
system.mem_ctrls.rdPerTurnAround::gmean     17.314456                       # Reads before turning the bus around for writes
system.mem_ctrls.rdPerTurnAround::stdev    659.633586                       # Reads before turning the bus around for writes
system.mem_ctrls.rdPerTurnAround::0-1023         2037     99.90%     99.90% # Reads before turning the bus around for writes
system.mem_ctrls.rdPerTurnAround::1024-2047            1      0.05%     99.95% # Reads before turning the bus around for writes
system.mem_ctrls.rdPerTurnAround::29696-30719            1      0.05%    100.00% # Reads before turning the bus around for writes
system.mem_ctrls.rdPerTurnAround::total          2039                       # Reads before turning the bus around for writes
system.mem_ctrls.wrPerTurnAround::samples         2039                       # Writes before turning the bus around for reads
system.mem_ctrls.wrPerTurnAround::mean      17.025993                       # Writes before turning the bus around for reads
system.mem_ctrls.wrPerTurnAround::gmean     16.996077                       # Writes before turning the bus around for reads
system.mem_ctrls.wrPerTurnAround::stdev      1.009188                       # Writes before turning the bus around for reads
system.mem_ctrls.wrPerTurnAround::16              991     48.60%     48.60% # Writes before turning the bus around for reads
system.mem_ctrls.wrPerTurnAround::17               25      1.23%     49.83% # Writes before turning the bus around for reads
system.mem_ctrls.wrPerTurnAround::18             1002     49.14%     98.97% # Writes before turning the bus around for reads
system.mem_ctrls.wrPerTurnAround::19               21      1.03%    100.00% # Writes before turning the bus around for reads
system.mem_ctrls.wrPerTurnAround::total          2039                       # Writes before turning the bus around for reads
system.mem_ctrls.masterReadBytes::.cpu.inst         4352                       # Per-master bytes read from memory
system.mem_ctrls.masterReadBytes::.cpu.data      4312512                       # Per-master bytes read from memory
system.mem_ctrls.masterWriteBytes::.writebacks      2221824                       # Per-master bytes write to memory
system.mem_ctrls.masterReadRate::.cpu.inst 198167.695587462920                       # Per-master bytes read from memory rate (Bytes/sec)
system.mem_ctrls.masterReadRate::.cpu.data 196369615.173088461161                       # Per-master bytes read from memory rate (Bytes/sec)
system.mem_ctrls.masterWriteRate::.writebacks 101170437.059034749866                       # Per-master bytes write to memory rate (Bytes/sec)
system.mem_ctrls.masterReadAccesses::.cpu.inst           68                       # Per-master read serviced memory accesses
system.mem_ctrls.masterReadAccesses::.cpu.data        67383                       # Per-master read serviced memory accesses
system.mem_ctrls.masterWriteAccesses::.writebacks        34736                       # Per-master write serviced memory accesses
system.mem_ctrls.masterReadTotalLat::.cpu.inst      2087000                       # Per-master read total memory access latency
system.mem_ctrls.masterReadTotalLat::.cpu.data   2476021500                       # Per-master read total memory access latency
system.mem_ctrls.masterWriteTotalLat::.writebacks 303349129750                       # Per-master write total memory access latency
system.mem_ctrls.masterReadAvgLat::.cpu.inst     30691.18                       # Per-master read average memory access latency
system.mem_ctrls.masterReadAvgLat::.cpu.data     36745.49                       # Per-master read average memory access latency
system.mem_ctrls.masterWriteAvgLat::.writebacks   8732989.69                       # Per-master write average memory access latency
system.mem_ctrls.totQLat                   1213402250                       # Total ticks spent queuing
system.mem_ctrls.totMemAccLat              2478108500                       # Total ticks spent from burst creation until serviced by the DRAM
system.mem_ctrls.totBusLat                  337255000                       # Total ticks spent in databus transfers
system.mem_ctrls.avgQLat                     17989.39                       # Average queueing delay per DRAM burst
system.mem_ctrls.avgBusLat                    5000.00                       # Average bus latency per DRAM burst
system.mem_ctrls.avgMemAccLat                36739.39                       # Average memory access latency per DRAM burst
system.mem_ctrls.avgRdBW                       196.57                       # Average DRAM read bandwidth in MiByte/s
system.mem_ctrls.avgWrBW                       101.17                       # Average achieved write bandwidth in MiByte/s
system.mem_ctrls.avgRdBWSys                    196.57                       # Average system read bandwidth in MiByte/s
system.mem_ctrls.avgWrBWSys                    101.23                       # Average system write bandwidth in MiByte/s
system.mem_ctrls.peakBW                      12800.00                       # Theoretical peak bandwidth in MiByte/s
system.mem_ctrls.busUtil                         2.33                       # Data bus utilization in percentage
system.mem_ctrls.busUtilRead                     1.54                       # Data bus utilization in percentage for reads
system.mem_ctrls.busUtilWrite                    0.79                       # Data bus utilization in percentage for writes
system.mem_ctrls.avgRdQLen                       1.07                       # Average read queue length when enqueuing
system.mem_ctrls.avgWrQLen                      14.38                       # Average write queue length when enqueuing
system.mem_ctrls.readRowHits                    58893                       # Number of row buffer hits during reads
system.mem_ctrls.writeRowHits                   31188                       # Number of row buffer hits during writes
system.mem_ctrls.readRowHitRate                 87.31                       # Row buffer hit rate for reads
system.mem_ctrls.writeRowHitRate                89.79                       # Row buffer hit rate for writes
system.mem_ctrls.avgGap                     214912.77                       # Average gap between requests
system.mem_ctrls.pageHitRate                    88.15                       # Row buffer hit rate, read and write combined
system.mem_ctrls_0.actEnergy                 43011360                       # Energy for activate commands per rank (pJ)
system.mem_ctrls_0.preEnergy                 22853490                       # Energy for precharge commands per rank (pJ)
system.mem_ctrls_0.readEnergy               242053140                       # Energy for read commands per rank (pJ)
system.mem_ctrls_0.writeEnergy               90796680                       # Energy for write commands per rank (pJ)
system.mem_ctrls_0.refreshEnergy         1236655680.000000                       # Energy for refresh commands per rank (pJ)
system.mem_ctrls_0.actBackEnergy            913434690                       # Energy for active background per rank (pJ)
system.mem_ctrls_0.preBackEnergy             50399520                       # Energy for precharge background per rank (pJ)
system.mem_ctrls_0.actPowerDownEnergy      5083759320                       # Energy for active power-down per rank (pJ)
system.mem_ctrls_0.prePowerDownEnergy       930072000                       # Energy for precharge power-down per rank (pJ)
system.mem_ctrls_0.selfRefreshEnergy       1584291720                       # Energy for self refresh per rank (pJ)
system.mem_ctrls_0.totalEnergy            10198785360                       # Total energy per rank (pJ)
system.mem_ctrls_0.averagePower            464.400228                       # Core power per rank (mW)
system.mem_ctrls_0.totalIdleTime          19825157000                       # Total Idle time Per DRAM Rank
system.mem_ctrls_0.memoryStateTime::IDLE     56916750                       # Time in different power states
system.mem_ctrls_0.memoryStateTime::REF     523120000                       # Time in different power states
system.mem_ctrls_0.memoryStateTime::SREF   6257440000                       # Time in different power states
system.mem_ctrls_0.memoryStateTime::PRE_PDN   2422065500                       # Time in different power states
system.mem_ctrls_0.memoryStateTime::ACT    1556032250                       # Time in different power states
system.mem_ctrls_0.memoryStateTime::ACT_PDN  11145696750                       # Time in different power states
system.mem_ctrls_1.actEnergy                 43418340                       # Energy for activate commands per rank (pJ)
system.mem_ctrls_1.preEnergy                 23073600                       # Energy for precharge commands per rank (pJ)
system.mem_ctrls_1.readEnergy               240211020                       # Energy for read commands per rank (pJ)
system.mem_ctrls_1.writeEnergy               90420840                       # Energy for write commands per rank (pJ)
system.mem_ctrls_1.refreshEnergy         1237270320.000000                       # Energy for refresh commands per rank (pJ)
system.mem_ctrls_1.actBackEnergy            908708250                       # Energy for active background per rank (pJ)
system.mem_ctrls_1.preBackEnergy             55137600                       # Energy for precharge background per rank (pJ)
system.mem_ctrls_1.actPowerDownEnergy      5083339230                       # Energy for active power-down per rank (pJ)
system.mem_ctrls_1.prePowerDownEnergy       932578560                       # Energy for precharge power-down per rank (pJ)
system.mem_ctrls_1.selfRefreshEnergy       1580815800                       # Energy for self refresh per rank (pJ)
system.mem_ctrls_1.totalEnergy            10195900620                       # Total energy per rank (pJ)
system.mem_ctrls_1.averagePower            464.268872                       # Core power per rank (mW)
system.mem_ctrls_1.totalIdleTime          19823301500                       # Total Idle time Per DRAM Rank
system.mem_ctrls_1.memoryStateTime::IDLE     68451500                       # Time in different power states
system.mem_ctrls_1.memoryStateTime::REF     523380000                       # Time in different power states
system.mem_ctrls_1.memoryStateTime::SREF   6251022500                       # Time in different power states
system.mem_ctrls_1.memoryStateTime::PRE_PDN   2428221500                       # Time in different power states
system.mem_ctrls_1.memoryStateTime::ACT    1546367250                       # Time in different power states
system.mem_ctrls_1.memoryStateTime::ACT_PDN  11144057500                       # Time in different power states
system.pwrStateResidencyTicks::UNDEFINED  21997144000                       # Cumulative time (in ticks) in various power states
system.cpu.branchPred.lookups                21120062                       # Number of BP lookups
system.cpu.branchPred.condPredicted          17043405                       # Number of conditional branches predicted
system.cpu.branchPred.condIncorrect            313164                       # Number of conditional branches incorrect
system.cpu.branchPred.BTBLookups             13116301                       # Number of BTB lookups
system.cpu.branchPred.BTBHits                12976496                       # Number of BTB hits
system.cpu.branchPred.BTBCorrect                    0                       # Number of correct BTB predictions (this stat may not work properly.
system.cpu.branchPred.BTBHitPct             98.934113                       # BTB Hit Percentage
system.cpu.branchPred.usedRAS                  412846                       # Number of times the RAS was used to get a target.
system.cpu.branchPred.RASInCorrect              13650                       # Number of incorrect RAS predictions.
system.cpu.branchPred.indirectLookups           57530                       # Number of indirect predictor lookups.
system.cpu.branchPred.indirectHits              52121                       # Number of indirect target hits.
system.cpu.branchPred.indirectMisses             5409                       # Number of indirect misses.
system.cpu.branchPredindirectMispredicted         1986                       # Number of mispredicted indirect branches.
system.cpu_voltage_domain.voltage                   1                       # Voltage in Volts
system.cpu_clk_domain.clock                       500                       # Clock period in ticks
system.cpu.dstage2_mmu.stage2_tlb.walker.pwrStateResidencyTicks::UNDEFINED  21997144000                       # Cumulative time (in ticks) in various power states
system.cpu.dstage2_mmu.stage2_tlb.walker.walks            0                       # Table walker walks requested
system.cpu.dstage2_mmu.stage2_tlb.walker.walkRequestOrigin_Requested::Data            0                       # Table walker requests started/completed, data/inst
system.cpu.dstage2_mmu.stage2_tlb.walker.walkRequestOrigin_Requested::Inst            0                       # Table walker requests started/completed, data/inst
system.cpu.dstage2_mmu.stage2_tlb.walker.walkRequestOrigin_Requested::total            0                       # Table walker requests started/completed, data/inst
system.cpu.dstage2_mmu.stage2_tlb.walker.walkRequestOrigin_Completed::Data            0                       # Table walker requests started/completed, data/inst
system.cpu.dstage2_mmu.stage2_tlb.walker.walkRequestOrigin_Completed::Inst            0                       # Table walker requests started/completed, data/inst
system.cpu.dstage2_mmu.stage2_tlb.walker.walkRequestOrigin_Completed::total            0                       # Table walker requests started/completed, data/inst
system.cpu.dstage2_mmu.stage2_tlb.walker.walkRequestOrigin::total            0                       # Table walker requests started/completed, data/inst
system.cpu.dstage2_mmu.stage2_tlb.inst_hits            0                       # ITB inst hits
system.cpu.dstage2_mmu.stage2_tlb.inst_misses            0                       # ITB inst misses
system.cpu.dstage2_mmu.stage2_tlb.read_hits            0                       # DTB read hits
system.cpu.dstage2_mmu.stage2_tlb.read_misses            0                       # DTB read misses
system.cpu.dstage2_mmu.stage2_tlb.write_hits            0                       # DTB write hits
system.cpu.dstage2_mmu.stage2_tlb.write_misses            0                       # DTB write misses
system.cpu.dstage2_mmu.stage2_tlb.flush_tlb            0                       # Number of times complete TLB was flushed
system.cpu.dstage2_mmu.stage2_tlb.flush_tlb_mva            0                       # Number of times TLB was flushed by MVA
system.cpu.dstage2_mmu.stage2_tlb.flush_tlb_mva_asid            0                       # Number of times TLB was flushed by MVA & ASID
system.cpu.dstage2_mmu.stage2_tlb.flush_tlb_asid            0                       # Number of times TLB was flushed by ASID
system.cpu.dstage2_mmu.stage2_tlb.flush_entries            0                       # Number of entries that have been flushed from TLB
system.cpu.dstage2_mmu.stage2_tlb.align_faults            0                       # Number of TLB faults due to alignment restrictions
system.cpu.dstage2_mmu.stage2_tlb.prefetch_faults            0                       # Number of TLB faults due to prefetch
system.cpu.dstage2_mmu.stage2_tlb.domain_faults            0                       # Number of TLB faults due to domain restrictions
system.cpu.dstage2_mmu.stage2_tlb.perms_faults            0                       # Number of TLB faults due to permissions restrictions
system.cpu.dstage2_mmu.stage2_tlb.read_accesses            0                       # DTB read accesses
system.cpu.dstage2_mmu.stage2_tlb.write_accesses            0                       # DTB write accesses
system.cpu.dstage2_mmu.stage2_tlb.inst_accesses            0                       # ITB inst accesses
system.cpu.dstage2_mmu.stage2_tlb.hits              0                       # DTB hits
system.cpu.dstage2_mmu.stage2_tlb.misses            0                       # DTB misses
system.cpu.dstage2_mmu.stage2_tlb.accesses            0                       # DTB accesses
system.cpu.dtb.walker.pwrStateResidencyTicks::UNDEFINED  21997144000                       # Cumulative time (in ticks) in various power states
system.cpu.dtb.walker.walks                         0                       # Table walker walks requested
system.cpu.dtb.walker.walkRequestOrigin_Requested::Data            0                       # Table walker requests started/completed, data/inst
system.cpu.dtb.walker.walkRequestOrigin_Requested::Inst            0                       # Table walker requests started/completed, data/inst
system.cpu.dtb.walker.walkRequestOrigin_Requested::total            0                       # Table walker requests started/completed, data/inst
system.cpu.dtb.walker.walkRequestOrigin_Completed::Data            0                       # Table walker requests started/completed, data/inst
system.cpu.dtb.walker.walkRequestOrigin_Completed::Inst            0                       # Table walker requests started/completed, data/inst
system.cpu.dtb.walker.walkRequestOrigin_Completed::total            0                       # Table walker requests started/completed, data/inst
system.cpu.dtb.walker.walkRequestOrigin::total            0                       # Table walker requests started/completed, data/inst
system.cpu.dtb.inst_hits                            0                       # ITB inst hits
system.cpu.dtb.inst_misses                          0                       # ITB inst misses
system.cpu.dtb.read_hits                            0                       # DTB read hits
system.cpu.dtb.read_misses                          0                       # DTB read misses
system.cpu.dtb.write_hits                           0                       # DTB write hits
system.cpu.dtb.write_misses                         0                       # DTB write misses
system.cpu.dtb.flush_tlb                            0                       # Number of times complete TLB was flushed
system.cpu.dtb.flush_tlb_mva                        0                       # Number of times TLB was flushed by MVA
system.cpu.dtb.flush_tlb_mva_asid                   0                       # Number of times TLB was flushed by MVA & ASID
system.cpu.dtb.flush_tlb_asid                       0                       # Number of times TLB was flushed by ASID
system.cpu.dtb.flush_entries                        0                       # Number of entries that have been flushed from TLB
system.cpu.dtb.align_faults                         0                       # Number of TLB faults due to alignment restrictions
system.cpu.dtb.prefetch_faults                      0                       # Number of TLB faults due to prefetch
system.cpu.dtb.domain_faults                        0                       # Number of TLB faults due to domain restrictions
system.cpu.dtb.perms_faults                         0                       # Number of TLB faults due to permissions restrictions
system.cpu.dtb.read_accesses                        0                       # DTB read accesses
system.cpu.dtb.write_accesses                       0                       # DTB write accesses
system.cpu.dtb.inst_accesses                        0                       # ITB inst accesses
system.cpu.dtb.hits                                 0                       # DTB hits
system.cpu.dtb.misses                               0                       # DTB misses
system.cpu.dtb.accesses                             0                       # DTB accesses
system.cpu.istage2_mmu.stage2_tlb.walker.pwrStateResidencyTicks::UNDEFINED  21997144000                       # Cumulative time (in ticks) in various power states
system.cpu.istage2_mmu.stage2_tlb.walker.walks            0                       # Table walker walks requested
system.cpu.istage2_mmu.stage2_tlb.walker.walkRequestOrigin_Requested::Data            0                       # Table walker requests started/completed, data/inst
system.cpu.istage2_mmu.stage2_tlb.walker.walkRequestOrigin_Requested::Inst            0                       # Table walker requests started/completed, data/inst
system.cpu.istage2_mmu.stage2_tlb.walker.walkRequestOrigin_Requested::total            0                       # Table walker requests started/completed, data/inst
system.cpu.istage2_mmu.stage2_tlb.walker.walkRequestOrigin_Completed::Data            0                       # Table walker requests started/completed, data/inst
system.cpu.istage2_mmu.stage2_tlb.walker.walkRequestOrigin_Completed::Inst            0                       # Table walker requests started/completed, data/inst
system.cpu.istage2_mmu.stage2_tlb.walker.walkRequestOrigin_Completed::total            0                       # Table walker requests started/completed, data/inst
system.cpu.istage2_mmu.stage2_tlb.walker.walkRequestOrigin::total            0                       # Table walker requests started/completed, data/inst
system.cpu.istage2_mmu.stage2_tlb.inst_hits            0                       # ITB inst hits
system.cpu.istage2_mmu.stage2_tlb.inst_misses            0                       # ITB inst misses
system.cpu.istage2_mmu.stage2_tlb.read_hits            0                       # DTB read hits
system.cpu.istage2_mmu.stage2_tlb.read_misses            0                       # DTB read misses
system.cpu.istage2_mmu.stage2_tlb.write_hits            0                       # DTB write hits
system.cpu.istage2_mmu.stage2_tlb.write_misses            0                       # DTB write misses
system.cpu.istage2_mmu.stage2_tlb.flush_tlb            0                       # Number of times complete TLB was flushed
system.cpu.istage2_mmu.stage2_tlb.flush_tlb_mva            0                       # Number of times TLB was flushed by MVA
system.cpu.istage2_mmu.stage2_tlb.flush_tlb_mva_asid            0                       # Number of times TLB was flushed by MVA & ASID
system.cpu.istage2_mmu.stage2_tlb.flush_tlb_asid            0                       # Number of times TLB was flushed by ASID
system.cpu.istage2_mmu.stage2_tlb.flush_entries            0                       # Number of entries that have been flushed from TLB
system.cpu.istage2_mmu.stage2_tlb.align_faults            0                       # Number of TLB faults due to alignment restrictions
system.cpu.istage2_mmu.stage2_tlb.prefetch_faults            0                       # Number of TLB faults due to prefetch
system.cpu.istage2_mmu.stage2_tlb.domain_faults            0                       # Number of TLB faults due to domain restrictions
system.cpu.istage2_mmu.stage2_tlb.perms_faults            0                       # Number of TLB faults due to permissions restrictions
system.cpu.istage2_mmu.stage2_tlb.read_accesses            0                       # DTB read accesses
system.cpu.istage2_mmu.stage2_tlb.write_accesses            0                       # DTB write accesses
system.cpu.istage2_mmu.stage2_tlb.inst_accesses            0                       # ITB inst accesses
system.cpu.istage2_mmu.stage2_tlb.hits              0                       # DTB hits
system.cpu.istage2_mmu.stage2_tlb.misses            0                       # DTB misses
system.cpu.istage2_mmu.stage2_tlb.accesses            0                       # DTB accesses
system.cpu.itb.walker.pwrStateResidencyTicks::UNDEFINED  21997144000                       # Cumulative time (in ticks) in various power states
system.cpu.itb.walker.walks                         0                       # Table walker walks requested
system.cpu.itb.walker.walkRequestOrigin_Requested::Data            0                       # Table walker requests started/completed, data/inst
system.cpu.itb.walker.walkRequestOrigin_Requested::Inst            0                       # Table walker requests started/completed, data/inst
system.cpu.itb.walker.walkRequestOrigin_Requested::total            0                       # Table walker requests started/completed, data/inst
system.cpu.itb.walker.walkRequestOrigin_Completed::Data            0                       # Table walker requests started/completed, data/inst
system.cpu.itb.walker.walkRequestOrigin_Completed::Inst            0                       # Table walker requests started/completed, data/inst
system.cpu.itb.walker.walkRequestOrigin_Completed::total            0                       # Table walker requests started/completed, data/inst
system.cpu.itb.walker.walkRequestOrigin::total            0                       # Table walker requests started/completed, data/inst
system.cpu.itb.inst_hits                            0                       # ITB inst hits
system.cpu.itb.inst_misses                          0                       # ITB inst misses
system.cpu.itb.read_hits                            0                       # DTB read hits
system.cpu.itb.read_misses                          0                       # DTB read misses
system.cpu.itb.write_hits                           0                       # DTB write hits
system.cpu.itb.write_misses                         0                       # DTB write misses
system.cpu.itb.flush_tlb                            0                       # Number of times complete TLB was flushed
system.cpu.itb.flush_tlb_mva                        0                       # Number of times TLB was flushed by MVA
system.cpu.itb.flush_tlb_mva_asid                   0                       # Number of times TLB was flushed by MVA & ASID
system.cpu.itb.flush_tlb_asid                       0                       # Number of times TLB was flushed by ASID
system.cpu.itb.flush_entries                        0                       # Number of entries that have been flushed from TLB
system.cpu.itb.align_faults                         0                       # Number of TLB faults due to alignment restrictions
system.cpu.itb.prefetch_faults                      0                       # Number of TLB faults due to prefetch
system.cpu.itb.domain_faults                        0                       # Number of TLB faults due to domain restrictions
system.cpu.itb.perms_faults                         0                       # Number of TLB faults due to permissions restrictions
system.cpu.itb.read_accesses                        0                       # DTB read accesses
system.cpu.itb.write_accesses                       0                       # DTB write accesses
system.cpu.itb.inst_accesses                        0                       # ITB inst accesses
system.cpu.itb.hits                                 0                       # DTB hits
system.cpu.itb.misses                               0                       # DTB misses
system.cpu.itb.accesses                             0                       # DTB accesses
system.cpu.workload.numSyscalls                     6                       # Number of system calls
system.cpu.pwrStateResidencyTicks::ON     21997144000                       # Cumulative time (in ticks) in various power states
system.cpu.numCycles                         43922396                       # number of cpu cycles simulated
system.cpu.numWorkItemsStarted                      0                       # number of work items this cpu started
system.cpu.numWorkItemsCompleted                    0                       # number of work items this cpu completed
system.cpu.fetch.icacheStallCycles           10139604                       # Number of cycles fetch is stalled on an Icache miss
system.cpu.fetch.Insts                      100956952                       # Number of instructions fetch has processed
system.cpu.fetch.Branches                    21120062                       # Number of branches that fetch encountered
system.cpu.fetch.predictedBranches           13441463                       # Number of branches that fetch has predicted taken
system.cpu.fetch.Cycles                      33414953                       # Number of cycles fetch has run and was not squashing or blocked
system.cpu.fetch.SquashCycles                  630656                       # Number of cycles fetch has spent squashing
system.cpu.fetch.MiscStallCycles                  273                       # Number of cycles fetch has spent waiting on interrupts, or bad addresses, or out of MSHRs
system.cpu.fetch.PendingTrapStallCycles          1412                       # Number of stall cycles due to pending traps
system.cpu.fetch.CacheLines                   9426750                       # Number of cache lines fetched
system.cpu.fetch.IcacheSquashes                 78644                       # Number of outstanding Icache misses that were squashed
system.cpu.fetch.rateDist::samples           43871570                       # Number of instructions fetched each cycle (Total)
system.cpu.fetch.rateDist::mean              2.533399                       # Number of instructions fetched each cycle (Total)
system.cpu.fetch.rateDist::stdev             3.099347                       # Number of instructions fetched each cycle (Total)
system.cpu.fetch.rateDist::underflows               0      0.00%      0.00% # Number of instructions fetched each cycle (Total)
system.cpu.fetch.rateDist::0                 21002595     47.87%     47.87% # Number of instructions fetched each cycle (Total)
system.cpu.fetch.rateDist::1                  2024272      4.61%     52.49% # Number of instructions fetched each cycle (Total)
system.cpu.fetch.rateDist::2                  6105798     13.92%     66.40% # Number of instructions fetched each cycle (Total)
system.cpu.fetch.rateDist::3                   473956      1.08%     67.48% # Number of instructions fetched each cycle (Total)
system.cpu.fetch.rateDist::4                  2600652      5.93%     73.41% # Number of instructions fetched each cycle (Total)
system.cpu.fetch.rateDist::5                   369983      0.84%     74.26% # Number of instructions fetched each cycle (Total)
system.cpu.fetch.rateDist::6                  2700152      6.15%     80.41% # Number of instructions fetched each cycle (Total)
system.cpu.fetch.rateDist::7                  1720289      3.92%     84.33% # Number of instructions fetched each cycle (Total)
system.cpu.fetch.rateDist::8                  6873873     15.67%    100.00% # Number of instructions fetched each cycle (Total)
system.cpu.fetch.rateDist::overflows                0      0.00%    100.00% # Number of instructions fetched each cycle (Total)
system.cpu.fetch.rateDist::min_value                0                       # Number of instructions fetched each cycle (Total)
system.cpu.fetch.rateDist::max_value                8                       # Number of instructions fetched each cycle (Total)
system.cpu.fetch.rateDist::total             43871570                       # Number of instructions fetched each cycle (Total)
system.cpu.fetch.branchRate                  0.480849                       # Number of branch fetches per cycle
system.cpu.fetch.rate                        2.298530                       # Number of inst fetches per cycle
system.cpu.decode.IdleCycles                  7929320                       # Number of cycles decode is idle
system.cpu.decode.BlockedCycles              15174018                       # Number of cycles decode is blocked
system.cpu.decode.RunCycles                  18677954                       # Number of cycles decode is running
system.cpu.decode.UnblockCycles               1776960                       # Number of cycles decode is unblocking
system.cpu.decode.SquashCycles                 313318                       # Number of cycles decode is squashing
system.cpu.decode.BranchResolved             12822632                       # Number of times decode resolved a branch
system.cpu.decode.BranchMispred                  2053                       # Number of times decode detected a branch misprediction
system.cpu.decode.DecodedInsts              109695853                       # Number of instructions handled by decode
system.cpu.decode.SquashedInsts                 15783                       # Number of squashed instructions handled by decode
system.cpu.rename.SquashCycles                 313318                       # Number of cycles rename is squashing
system.cpu.rename.IdleCycles                  8732159                       # Number of cycles rename is idle
system.cpu.rename.BlockCycles                 6724673                       # Number of cycles rename is blocking
system.cpu.rename.serializeStallCycles         298647                       # count of cycles rename stalled for serializing inst
system.cpu.rename.RunCycles                  19502831                       # Number of cycles rename is running
system.cpu.rename.UnblockCycles               8299942                       # Number of cycles rename is unblocking
system.cpu.rename.RenamedInsts              108560345                       # Number of instructions processed by rename
system.cpu.rename.IQFullEvents                2402275                       # Number of times rename has blocked due to IQ full
system.cpu.rename.LQFullEvents                2503301                       # Number of times rename has blocked due to LQ full
system.cpu.rename.SQFullEvents                3304591                       # Number of times rename has blocked due to SQ full
system.cpu.rename.RenamedOperands           117694496                       # Number of destination operands rename has renamed
system.cpu.rename.RenameLookups             485014128                       # Number of register rename lookups that rename has made
system.cpu.rename.int_rename_lookups        109837356                       # Number of integer rename lookups
system.cpu.rename.CommittedMaps             104969990                       # Number of HB maps that are committed
system.cpu.rename.UndoneMaps                 12724513                       # Number of HB maps that are undone due to squashing
system.cpu.rename.serializingInsts               9188                       # count of serializing insts renamed
system.cpu.rename.tempSerializingInsts           9193                       # count of temporary serializing insts renamed
system.cpu.rename.skidInsts                   7840343                       # count of insts added to the skid buffer
system.cpu.memDep0.insertedLoads             37525452                       # Number of loads inserted to the mem dependence unit.
system.cpu.memDep0.insertedStores             7171563                       # Number of stores inserted to the mem dependence unit.
system.cpu.memDep0.conflictingLoads           6592811                       # Number of conflicting loads.
system.cpu.memDep0.conflictingStores           687894                       # Number of conflicting stores.
system.cpu.iq.iqInstsAdded                  106446982                       # Number of instructions added to the IQ (excludes non-spec)
system.cpu.iq.iqNonSpecInstsAdded               16448                       # Number of non-speculative instructions added to the IQ
system.cpu.iq.iqInstsIssued                 102959925                       # Number of instructions issued
system.cpu.iq.iqSquashedInstsIssued             13160                       # Number of squashed instructions issued
system.cpu.iq.iqSquashedInstsExamined         9789479                       # Number of squashed instructions iterated over during squash; mainly for profiling
system.cpu.iq.iqSquashedOperandsExamined     22427788                       # Number of squashed operands that are examined and possibly removed from graph
system.cpu.iq.iqSquashedNonSpecRemoved            937                       # Number of squashed non-spec instructions that were removed
system.cpu.iq.issued_per_cycle::samples      43871570                       # Number of insts issued each cycle
system.cpu.iq.issued_per_cycle::mean         2.346848                       # Number of insts issued each cycle
system.cpu.iq.issued_per_cycle::stdev        2.128430                       # Number of insts issued each cycle
system.cpu.iq.issued_per_cycle::underflows            0      0.00%      0.00% # Number of insts issued each cycle
system.cpu.iq.issued_per_cycle::0            12913826     29.44%     29.44% # Number of insts issued each cycle
system.cpu.iq.issued_per_cycle::1             5287545     12.05%     41.49% # Number of insts issued each cycle
system.cpu.iq.issued_per_cycle::2             7277661     16.59%     58.08% # Number of insts issued each cycle
system.cpu.iq.issued_per_cycle::3             4806131     10.96%     69.03% # Number of insts issued each cycle
system.cpu.iq.issued_per_cycle::4             5201562     11.86%     80.89% # Number of insts issued each cycle
system.cpu.iq.issued_per_cycle::5             4113096      9.38%     90.26% # Number of insts issued each cycle
system.cpu.iq.issued_per_cycle::6             2993582      6.82%     97.09% # Number of insts issued each cycle
system.cpu.iq.issued_per_cycle::7              859891      1.96%     99.05% # Number of insts issued each cycle
system.cpu.iq.issued_per_cycle::8              418276      0.95%    100.00% # Number of insts issued each cycle
system.cpu.iq.issued_per_cycle::overflows            0      0.00%    100.00% # Number of insts issued each cycle
system.cpu.iq.issued_per_cycle::min_value            0                       # Number of insts issued each cycle
system.cpu.iq.issued_per_cycle::max_value            8                       # Number of insts issued each cycle
system.cpu.iq.issued_per_cycle::total        43871570                       # Number of insts issued each cycle
system.cpu.iq.fu_full::No_OpClass                   0      0.00%      0.00% # attempts to use FU when none available
system.cpu.iq.fu_full::IntAlu                  766221     35.08%     35.08% # attempts to use FU when none available
system.cpu.iq.fu_full::IntMult                      0      0.00%     35.08% # attempts to use FU when none available
system.cpu.iq.fu_full::IntDiv                       0      0.00%     35.08% # attempts to use FU when none available
system.cpu.iq.fu_full::FloatAdd                     0      0.00%     35.08% # attempts to use FU when none available
system.cpu.iq.fu_full::FloatCmp                     0      0.00%     35.08% # attempts to use FU when none available
system.cpu.iq.fu_full::FloatCvt                     0      0.00%     35.08% # attempts to use FU when none available
system.cpu.iq.fu_full::FloatMult                    0      0.00%     35.08% # attempts to use FU when none available
system.cpu.iq.fu_full::FloatMultAcc                 0      0.00%     35.08% # attempts to use FU when none available
system.cpu.iq.fu_full::FloatDiv                     0      0.00%     35.08% # attempts to use FU when none available
system.cpu.iq.fu_full::FloatMisc                    0      0.00%     35.08% # attempts to use FU when none available
system.cpu.iq.fu_full::FloatSqrt                    0      0.00%     35.08% # attempts to use FU when none available
system.cpu.iq.fu_full::SimdAdd                      0      0.00%     35.08% # attempts to use FU when none available
system.cpu.iq.fu_full::SimdAddAcc                   0      0.00%     35.08% # attempts to use FU when none available
system.cpu.iq.fu_full::SimdAlu                      0      0.00%     35.08% # attempts to use FU when none available
system.cpu.iq.fu_full::SimdCmp                      0      0.00%     35.08% # attempts to use FU when none available
system.cpu.iq.fu_full::SimdCvt                      0      0.00%     35.08% # attempts to use FU when none available
system.cpu.iq.fu_full::SimdMisc                     0      0.00%     35.08% # attempts to use FU when none available
system.cpu.iq.fu_full::SimdMult                     0      0.00%     35.08% # attempts to use FU when none available
system.cpu.iq.fu_full::SimdMultAcc                  0      0.00%     35.08% # attempts to use FU when none available
system.cpu.iq.fu_full::SimdShift                    0      0.00%     35.08% # attempts to use FU when none available
system.cpu.iq.fu_full::SimdShiftAcc                 0      0.00%     35.08% # attempts to use FU when none available
system.cpu.iq.fu_full::SimdSqrt                     0      0.00%     35.08% # attempts to use FU when none available
system.cpu.iq.fu_full::SimdFloatAdd                 0      0.00%     35.08% # attempts to use FU when none available
system.cpu.iq.fu_full::SimdFloatAlu                 0      0.00%     35.08% # attempts to use FU when none available
system.cpu.iq.fu_full::SimdFloatCmp                 0      0.00%     35.08% # attempts to use FU when none available
system.cpu.iq.fu_full::SimdFloatCvt                 0      0.00%     35.08% # attempts to use FU when none available
system.cpu.iq.fu_full::SimdFloatDiv                 0      0.00%     35.08% # attempts to use FU when none available
system.cpu.iq.fu_full::SimdFloatMisc                0      0.00%     35.08% # attempts to use FU when none available
system.cpu.iq.fu_full::SimdFloatMult                0      0.00%     35.08% # attempts to use FU when none available
system.cpu.iq.fu_full::SimdFloatMultAcc             0      0.00%     35.08% # attempts to use FU when none available
system.cpu.iq.fu_full::SimdFloatSqrt                0      0.00%     35.08% # attempts to use FU when none available
system.cpu.iq.fu_full::MemRead                1259015     57.64%     92.72% # attempts to use FU when none available
system.cpu.iq.fu_full::MemWrite                159032      7.28%    100.00% # attempts to use FU when none available
system.cpu.iq.fu_full::FloatMemRead                 0      0.00%    100.00% # attempts to use FU when none available
system.cpu.iq.fu_full::FloatMemWrite                0      0.00%    100.00% # attempts to use FU when none available
system.cpu.iq.fu_full::IprAccess                    0      0.00%    100.00% # attempts to use FU when none available
system.cpu.iq.fu_full::InstPrefetch                 0      0.00%    100.00% # attempts to use FU when none available
system.cpu.iq.FU_type_0::No_OpClass               218      0.00%      0.00% # Type of FU issued
system.cpu.iq.FU_type_0::IntAlu              59123125     57.42%     57.42% # Type of FU issued
system.cpu.iq.FU_type_0::IntMult                 5939      0.01%     57.43% # Type of FU issued
system.cpu.iq.FU_type_0::IntDiv                     0      0.00%     57.43% # Type of FU issued
system.cpu.iq.FU_type_0::FloatAdd                   0      0.00%     57.43% # Type of FU issued
system.cpu.iq.FU_type_0::FloatCmp                   0      0.00%     57.43% # Type of FU issued
system.cpu.iq.FU_type_0::FloatCvt                   0      0.00%     57.43% # Type of FU issued
system.cpu.iq.FU_type_0::FloatMult                  0      0.00%     57.43% # Type of FU issued
system.cpu.iq.FU_type_0::FloatMultAcc               0      0.00%     57.43% # Type of FU issued
system.cpu.iq.FU_type_0::FloatDiv                   0      0.00%     57.43% # Type of FU issued
system.cpu.iq.FU_type_0::FloatMisc                  0      0.00%     57.43% # Type of FU issued
system.cpu.iq.FU_type_0::FloatSqrt                  0      0.00%     57.43% # Type of FU issued
system.cpu.iq.FU_type_0::SimdAdd                    0      0.00%     57.43% # Type of FU issued
system.cpu.iq.FU_type_0::SimdAddAcc                 0      0.00%     57.43% # Type of FU issued
system.cpu.iq.FU_type_0::SimdAlu                    0      0.00%     57.43% # Type of FU issued
system.cpu.iq.FU_type_0::SimdCmp                    0      0.00%     57.43% # Type of FU issued
system.cpu.iq.FU_type_0::SimdCvt                    0      0.00%     57.43% # Type of FU issued
system.cpu.iq.FU_type_0::SimdMisc                   0      0.00%     57.43% # Type of FU issued
system.cpu.iq.FU_type_0::SimdMult                   0      0.00%     57.43% # Type of FU issued
system.cpu.iq.FU_type_0::SimdMultAcc                0      0.00%     57.43% # Type of FU issued
system.cpu.iq.FU_type_0::SimdShift                  0      0.00%     57.43% # Type of FU issued
system.cpu.iq.FU_type_0::SimdShiftAcc               0      0.00%     57.43% # Type of FU issued
system.cpu.iq.FU_type_0::SimdSqrt                   0      0.00%     57.43% # Type of FU issued
system.cpu.iq.FU_type_0::SimdFloatAdd               0      0.00%     57.43% # Type of FU issued
system.cpu.iq.FU_type_0::SimdFloatAlu               0      0.00%     57.43% # Type of FU issued
system.cpu.iq.FU_type_0::SimdFloatCmp               0      0.00%     57.43% # Type of FU issued
system.cpu.iq.FU_type_0::SimdFloatCvt               0      0.00%     57.43% # Type of FU issued
system.cpu.iq.FU_type_0::SimdFloatDiv               0      0.00%     57.43% # Type of FU issued
system.cpu.iq.FU_type_0::SimdFloatMisc              0      0.00%     57.43% # Type of FU issued
system.cpu.iq.FU_type_0::SimdFloatMult              0      0.00%     57.43% # Type of FU issued
system.cpu.iq.FU_type_0::SimdFloatMultAcc            0      0.00%     57.43% # Type of FU issued
system.cpu.iq.FU_type_0::SimdFloatSqrt              0      0.00%     57.43% # Type of FU issued
system.cpu.iq.FU_type_0::MemRead             37065614     36.00%     93.43% # Type of FU issued
system.cpu.iq.FU_type_0::MemWrite             6765029      6.57%    100.00% # Type of FU issued
system.cpu.iq.FU_type_0::FloatMemRead               0      0.00%    100.00% # Type of FU issued
system.cpu.iq.FU_type_0::FloatMemWrite              0      0.00%    100.00% # Type of FU issued
system.cpu.iq.FU_type_0::IprAccess                  0      0.00%    100.00% # Type of FU issued
system.cpu.iq.FU_type_0::InstPrefetch               0      0.00%    100.00% # Type of FU issued
system.cpu.iq.FU_type_0::total              102959925                       # Type of FU issued
system.cpu.iq.rate                           2.344133                       # Inst issue rate
system.cpu.iq.fu_busy_cnt                     2184268                       # FU busy when requested
system.cpu.iq.fu_busy_rate                   0.021215                       # FU busy rate (busy events/executed inst)
system.cpu.iq.int_inst_queue_reads          251988848                       # Number of integer instruction queue reads
system.cpu.iq.int_inst_queue_writes         116255284                       # Number of integer instruction queue writes
system.cpu.iq.int_inst_queue_wakeup_accesses    101424742                       # Number of integer instruction queue wakeup accesses
system.cpu.iq.fp_inst_queue_reads                   0                       # Number of floating instruction queue reads
system.cpu.iq.fp_inst_queue_writes                  0                       # Number of floating instruction queue writes
system.cpu.iq.fp_inst_queue_wakeup_accesses            0                       # Number of floating instruction queue wakeup accesses
system.cpu.iq.vec_inst_queue_reads                  0                       # Number of vector instruction queue reads
system.cpu.iq.vec_inst_queue_writes                 0                       # Number of vector instruction queue writes
system.cpu.iq.vec_inst_queue_wakeup_accesses            0                       # Number of vector instruction queue wakeup accesses
system.cpu.iq.int_alu_accesses              105143975                       # Number of integer alu accesses
system.cpu.iq.fp_alu_accesses                       0                       # Number of floating point alu accesses
system.cpu.iq.vec_alu_accesses                      0                       # Number of vector alu accesses
system.cpu.iew.lsq.thread0.forwLoads         11119833                       # Number of loads that had data forwarded from stores
system.cpu.iew.lsq.thread0.invAddrLoads             0                       # Number of loads ignored due to an invalid address
system.cpu.iew.lsq.thread0.squashedLoads      4199396                       # Number of loads squashed
system.cpu.iew.lsq.thread0.ignoredResponses       121954                       # Number of memory responses ignored because the instruction is squashed
system.cpu.iew.lsq.thread0.memOrderViolation         2484                       # Number of memory ordering violations
system.cpu.iew.lsq.thread0.squashedStores       678927                       # Number of stores squashed
system.cpu.iew.lsq.thread0.invAddrSwpfs             0                       # Number of software prefetches ignored due to an invalid address
system.cpu.iew.lsq.thread0.blockedLoads             0                       # Number of blocked loads due to partial load-store forwarding
system.cpu.iew.lsq.thread0.rescheduledLoads       125905                       # Number of loads that were rescheduled
system.cpu.iew.lsq.thread0.cacheBlocked          1970                       # Number of times an access to memory failed due to the cache being blocked
system.cpu.iew.iewIdleCycles                        0                       # Number of cycles IEW is idle
system.cpu.iew.iewSquashCycles                 313318                       # Number of cycles IEW is squashing
system.cpu.iew.iewBlockCycles                 5828748                       # Number of cycles IEW is blocking
system.cpu.iew.iewUnblockCycles                132932                       # Number of cycles IEW is unblocking
system.cpu.iew.iewDispatchedInsts           106463430                       # Number of instructions dispatched to IQ
system.cpu.iew.iewDispSquashedInsts             53337                       # Number of squashed instructions skipped by dispatch
system.cpu.iew.iewDispLoadInsts              37525452                       # Number of dispatched load instructions
system.cpu.iew.iewDispStoreInsts              7171563                       # Number of dispatched store instructions
system.cpu.iew.iewDispNonSpecInsts               8696                       # Number of dispatched non-speculative instructions
system.cpu.iew.iewIQFullEvents                   5869                       # Number of times the IQ has become full, causing a stall
system.cpu.iew.iewLSQFullEvents                 99551                       # Number of times the LSQ has become full, causing a stall
system.cpu.iew.memOrderViolationEvents           2484                       # Number of memory order violations
system.cpu.iew.predictedTakenIncorrect         179879                       # Number of branches that were predicted taken incorrectly
system.cpu.iew.predictedNotTakenIncorrect       222762                       # Number of branches that were predicted not taken incorrectly
system.cpu.iew.branchMispredicts               402641                       # Number of branch mispredicts detected at execute
system.cpu.iew.iewExecutedInsts             102434654                       # Number of executed instructions
system.cpu.iew.iewExecLoadInsts              36631256                       # Number of load instructions executed
system.cpu.iew.iewExecSquashedInsts            525271                       # Number of squashed instructions skipped in execute
system.cpu.iew.exec_swp                             0                       # number of swp insts executed
system.cpu.iew.exec_nop                             0                       # number of nop insts executed
system.cpu.iew.exec_refs                     43382108                       # number of memory reference insts executed
system.cpu.iew.exec_branches                 19307089                       # Number of branches executed
system.cpu.iew.exec_stores                    6750852                       # Number of stores executed
system.cpu.iew.exec_rate                     2.332174                       # Inst execution rate
system.cpu.iew.wb_sent                      101798857                       # cumulative count of insts sent to commit
system.cpu.iew.wb_count                     101424742                       # cumulative count of insts written-back
system.cpu.iew.wb_producers                  69779520                       # num instructions producing a value
system.cpu.iew.wb_consumers                 100225113                       # num instructions consuming a value
system.cpu.iew.wb_rate                       2.309181                       # insts written-back per cycle
system.cpu.iew.wb_fanout                     0.696228                       # average fanout of values written-back
system.cpu.commit.commitSquashedInsts         9789682                       # The number of squashed insts skipped by commit
system.cpu.commit.commitNonSpecStalls           15511                       # The number of times commit has been forced to stall to communicate backwards
system.cpu.commit.branchMispredicts            311363                       # The number of times a branch was mispredicted
system.cpu.commit.committed_per_cycle::samples     42444062                       # Number of insts commited each cycle
system.cpu.commit.committed_per_cycle::mean     2.277679                       # Number of insts commited each cycle
system.cpu.commit.committed_per_cycle::stdev     2.795239                       # Number of insts commited each cycle
system.cpu.commit.committed_per_cycle::underflows            0      0.00%      0.00% # Number of insts commited each cycle
system.cpu.commit.committed_per_cycle::0     15544317     36.62%     36.62% # Number of insts commited each cycle
system.cpu.commit.committed_per_cycle::1     10864368     25.60%     62.22% # Number of insts commited each cycle
[...]
system.l2.ReadSharedReq_accesses::.cpu.data        55529                       # number of ReadSharedReq accesses(hits+misses)
system.l2.ReadSharedReq_accesses::total         55529                       # number of ReadSharedReq accesses(hits+misses)
system.l2.demand_accesses::.cpu.inst            25378                       # number of demand (read+write) accesses
system.l2.demand_accesses::.cpu.data           100663                       # number of demand (read+write) accesses
system.l2.demand_accesses::total               126041                       # number of demand (read+write) accesses
system.l2.overall_accesses::.cpu.inst           25378                       # number of overall (read+write) accesses
system.l2.overall_accesses::.cpu.data          100663                       # number of overall (read+write) accesses
system.l2.overall_accesses::total              126041                       # number of overall (read+write) accesses
system.l2.ReadExReq_miss_rate::.cpu.data     0.783644                       # miss rate for ReadExReq accesses
system.l2.ReadExReq_miss_rate::total         0.783644                       # miss rate for ReadExReq accesses
system.l2.ReadCleanReq_miss_rate::.cpu.inst     0.005201                       # miss rate for ReadCleanReq accesses
system.l2.ReadCleanReq_miss_rate::total      0.005201                       # miss rate for ReadCleanReq accesses
system.l2.ReadSharedReq_miss_rate::.cpu.data     0.577032                       # miss rate for ReadSharedReq accesses
system.l2.ReadSharedReq_miss_rate::total     0.577032                       # miss rate for ReadSharedReq accesses
system.l2.demand_miss_rate::.cpu.inst        0.005201                       # miss rate for demand accesses
system.l2.demand_miss_rate::.cpu.data        0.669670                       # miss rate for demand accesses
system.l2.demand_miss_rate::total            0.535881                       # miss rate for demand accesses
system.l2.overall_miss_rate::.cpu.inst       0.005201                       # miss rate for overall accesses
system.l2.overall_miss_rate::.cpu.data       0.669670                       # miss rate for overall accesses
system.l2.overall_miss_rate::total           0.535881                       # miss rate for overall accesses
system.l2.ReadExReq_avg_miss_latency::.cpu.data 91809.183183                       # average ReadExReq miss latency
system.l2.ReadExReq_avg_miss_latency::total 91809.183183                       # average ReadExReq miss latency
system.l2.ReadCleanReq_avg_miss_latency::.cpu.inst 86662.878788                       # average ReadCleanReq miss latency
system.l2.ReadCleanReq_avg_miss_latency::total 86662.878788                       # average ReadCleanReq miss latency
system.l2.ReadSharedReq_avg_miss_latency::.cpu.data 83265.105174                       # average ReadSharedReq miss latency
system.l2.ReadSharedReq_avg_miss_latency::total 83265.105174                       # average ReadSharedReq miss latency
system.l2.demand_avg_miss_latency::.cpu.inst 86662.878788                       # average overall miss latency
system.l2.demand_avg_miss_latency::.cpu.data 87747.986234                       # average overall miss latency
system.l2.demand_avg_miss_latency::total 87745.865597                       # average overall miss latency
system.l2.overall_avg_miss_latency::.cpu.inst 86662.878788                       # average overall miss latency
system.l2.overall_avg_miss_latency::.cpu.data 87747.986234                       # average overall miss latency
system.l2.overall_avg_miss_latency::total 87745.865597                       # average overall miss latency
system.l2.blocked_cycles::no_mshrs                  0                       # number of cycles access was blocked
system.l2.blocked_cycles::no_targets                0                       # number of cycles access was blocked
system.l2.blocked::no_mshrs                         0                       # number of cycles access was blocked
system.l2.blocked::no_targets                       0                       # number of cycles access was blocked
system.l2.avg_blocked_cycles::no_mshrs            nan                       # average number of cycles each access was blocked
system.l2.avg_blocked_cycles::no_targets          nan                       # average number of cycles each access was blocked
system.l2.writebacks::.writebacks               34879                       # number of writebacks
system.l2.writebacks::total                     34879                       # number of writebacks
system.l2.ReadSharedReq_mshr_hits::.cpu.data            4                       # number of ReadSharedReq MSHR hits
system.l2.ReadSharedReq_mshr_hits::total            4                       # number of ReadSharedReq MSHR hits
system.l2.demand_mshr_hits::.cpu.data               4                       # number of demand (read+write) MSHR hits
system.l2.demand_mshr_hits::total                   4                       # number of demand (read+write) MSHR hits
system.l2.overall_mshr_hits::.cpu.data              4                       # number of overall MSHR hits
system.l2.overall_mshr_hits::total                  4                       # number of overall MSHR hits
system.l2.ReadExReq_mshr_misses::.cpu.data        35369                       # number of ReadExReq MSHR misses
system.l2.ReadExReq_mshr_misses::total          35369                       # number of ReadExReq MSHR misses
system.l2.ReadCleanReq_mshr_misses::.cpu.inst          132                       # number of ReadCleanReq MSHR misses
system.l2.ReadCleanReq_mshr_misses::total          132                       # number of ReadCleanReq MSHR misses
system.l2.ReadSharedReq_mshr_misses::.cpu.data        32038                       # number of ReadSharedReq MSHR misses
system.l2.ReadSharedReq_mshr_misses::total        32038                       # number of ReadSharedReq MSHR misses
system.l2.demand_mshr_misses::.cpu.inst           132                       # number of demand (read+write) MSHR misses
system.l2.demand_mshr_misses::.cpu.data         67407                       # number of demand (read+write) MSHR misses
system.l2.demand_mshr_misses::total             67539                       # number of demand (read+write) MSHR misses
system.l2.overall_mshr_misses::.cpu.inst          132                       # number of overall MSHR misses
system.l2.overall_mshr_misses::.cpu.data        67407                       # number of overall MSHR misses
system.l2.overall_mshr_misses::total            67539                       # number of overall MSHR misses
system.l2.ReadExReq_mshr_miss_latency::.cpu.data   2893509000                       # number of ReadExReq MSHR miss cycles
system.l2.ReadExReq_mshr_miss_latency::total   2893509000                       # number of ReadExReq MSHR miss cycles
system.l2.ReadCleanReq_mshr_miss_latency::.cpu.inst     10129500                       # number of ReadCleanReq MSHR miss cycles
system.l2.ReadCleanReq_mshr_miss_latency::total     10129500                       # number of ReadCleanReq MSHR miss cycles
system.l2.ReadSharedReq_mshr_miss_latency::.cpu.data   2347309500                       # number of ReadSharedReq MSHR miss cycles
system.l2.ReadSharedReq_mshr_miss_latency::total   2347309500                       # number of ReadSharedReq MSHR miss cycles
system.l2.demand_mshr_miss_latency::.cpu.inst     10129500                       # number of demand (read+write) MSHR miss cycles
system.l2.demand_mshr_miss_latency::.cpu.data   5240818500                       # number of demand (read+write) MSHR miss cycles
system.l2.demand_mshr_miss_latency::total   5250948000                       # number of demand (read+write) MSHR miss cycles
system.l2.overall_mshr_miss_latency::.cpu.inst     10129500                       # number of overall MSHR miss cycles
system.l2.overall_mshr_miss_latency::.cpu.data   5240818500                       # number of overall MSHR miss cycles
system.l2.overall_mshr_miss_latency::total   5250948000                       # number of overall MSHR miss cycles
system.l2.ReadExReq_mshr_miss_rate::.cpu.data     0.783644                       # mshr miss rate for ReadExReq accesses
system.l2.ReadExReq_mshr_miss_rate::total     0.783644                       # mshr miss rate for ReadExReq accesses
system.l2.ReadCleanReq_mshr_miss_rate::.cpu.inst     0.005201                       # mshr miss rate for ReadCleanReq accesses
system.l2.ReadCleanReq_mshr_miss_rate::total     0.005201                       # mshr miss rate for ReadCleanReq accesses
system.l2.ReadSharedReq_mshr_miss_rate::.cpu.data     0.576960                       # mshr miss rate for ReadSharedReq accesses
system.l2.ReadSharedReq_mshr_miss_rate::total     0.576960                       # mshr miss rate for ReadSharedReq accesses
system.l2.demand_mshr_miss_rate::.cpu.inst     0.005201                       # mshr miss rate for demand accesses
system.l2.demand_mshr_miss_rate::.cpu.data     0.669630                       # mshr miss rate for demand accesses
system.l2.demand_mshr_miss_rate::total       0.535849                       # mshr miss rate for demand accesses
system.l2.overall_mshr_miss_rate::.cpu.inst     0.005201                       # mshr miss rate for overall accesses
system.l2.overall_mshr_miss_rate::.cpu.data     0.669630                       # mshr miss rate for overall accesses
system.l2.overall_mshr_miss_rate::total      0.535849                       # mshr miss rate for overall accesses
system.l2.ReadExReq_avg_mshr_miss_latency::.cpu.data 81809.183183                       # average ReadExReq mshr miss latency
system.l2.ReadExReq_avg_mshr_miss_latency::total 81809.183183                       # average ReadExReq mshr miss latency
system.l2.ReadCleanReq_avg_mshr_miss_latency::.cpu.inst 76738.636364                       # average ReadCleanReq mshr miss latency
system.l2.ReadCleanReq_avg_mshr_miss_latency::total 76738.636364                       # average ReadCleanReq mshr miss latency
system.l2.ReadSharedReq_avg_mshr_miss_latency::.cpu.data 73266.418004                       # average ReadSharedReq mshr miss latency
system.l2.ReadSharedReq_avg_mshr_miss_latency::total 73266.418004                       # average ReadSharedReq mshr miss latency
system.l2.demand_avg_mshr_miss_latency::.cpu.inst 76738.636364                       # average overall mshr miss latency
system.l2.demand_avg_mshr_miss_latency::.cpu.data 77748.876229                       # average overall mshr miss latency
system.l2.demand_avg_mshr_miss_latency::total 77746.901790                       # average overall mshr miss latency
system.l2.overall_avg_mshr_miss_latency::.cpu.inst 76738.636364                       # average overall mshr miss latency
system.l2.overall_avg_mshr_miss_latency::.cpu.data 77748.876229                       # average overall mshr miss latency
system.l2.overall_avg_mshr_miss_latency::total 77746.901790                       # average overall mshr miss latency
system.l2.replacements                          35566                       # number of replacements
system.membus.snoop_filter.tot_requests        102990                       # Total number of requests made to the snoop filter.
system.membus.snoop_filter.hit_single_requests        35452                       # Number of requests hitting in the snoop filter with a single holder of the requested data.
system.membus.snoop_filter.hit_multi_requests            0                       # Number of requests hitting in the snoop filter with multiple (>1) holders of the requested data.
system.membus.snoop_filter.tot_snoops               0                       # Total number of snoops made to the snoop filter.
system.membus.snoop_filter.hit_single_snoops            0                       # Number of snoops hitting in the snoop filter with a single holder of the requested data.
system.membus.snoop_filter.hit_multi_snoops            0                       # Number of snoops hitting in the snoop filter with multiple (>1) holders of the requested data.
system.membus.pwrStateResidencyTicks::UNDEFINED  22002313000                       # Cumulative time (in ticks) in various power states
system.membus.trans_dist::ReadResp              32169                       # Transaction distribution
system.membus.trans_dist::WritebackDirty        34879                       # Transaction distribution
system.membus.trans_dist::CleanEvict              572                       # Transaction distribution
system.membus.trans_dist::ReadExReq             35369                       # Transaction distribution
system.membus.trans_dist::ReadExResp            35369                       # Transaction distribution
system.membus.trans_dist::ReadSharedReq         32170                       # Transaction distribution
system.membus.pkt_count_system.l2.mem_side::system.mem_ctrls.port       170528                       # Packet count per connected master and slave (bytes)
system.membus.pkt_count::total                 170528                       # Packet count per connected master and slave (bytes)
system.membus.pkt_size_system.l2.mem_side::system.mem_ctrls.port      6554688                       # Cumulative packet size per connected master and slave (bytes)
system.membus.pkt_size::total                 6554688                       # Cumulative packet size per connected master and slave (bytes)
system.membus.snoops                                0                       # Total snoops (count)
system.membus.snoopTraffic                          0                       # Total snoop traffic (bytes)
system.membus.snoop_fanout::samples             67539                       # Request fanout histogram
system.membus.snoop_fanout::mean                    0                       # Request fanout histogram
system.membus.snoop_fanout::stdev                   0                       # Request fanout histogram
system.membus.snoop_fanout::underflows              0      0.00%      0.00% # Request fanout histogram
system.membus.snoop_fanout::0                   67539    100.00%    100.00% # Request fanout histogram
system.membus.snoop_fanout::1                       0      0.00%    100.00% # Request fanout histogram
system.membus.snoop_fanout::overflows               0      0.00%    100.00% # Request fanout histogram
system.membus.snoop_fanout::min_value               0                       # Request fanout histogram
system.membus.snoop_fanout::max_value               0                       # Request fanout histogram
system.membus.snoop_fanout::total               67539                       # Request fanout histogram
system.membus.reqLayer0.occupancy           255352500                       # Layer occupancy (ticks)
system.membus.reqLayer0.utilization               1.2                       # Layer utilization (%)
system.membus.respLayer1.occupancy          355750750                       # Layer occupancy (ticks)
system.membus.respLayer1.utilization              1.6                       # Layer utilization (%)
system.tol2bus.snoop_filter.tot_requests       252070                       # Total number of requests made to the snoop filter.
system.tol2bus.snoop_filter.hit_single_requests       126036                       # Number of requests hitting in the snoop filter with a single holder of the requested data.
system.tol2bus.snoop_filter.hit_multi_requests         2465                       # Number of requests hitting in the snoop filter with multiple (>1) holders of the requested data.
system.tol2bus.snoop_filter.tot_snoops            115                       # Total number of snoops made to the snoop filter.
system.tol2bus.snoop_filter.hit_single_snoops          115                       # Number of snoops hitting in the snoop filter with a single holder of the requested data.
system.tol2bus.snoop_filter.hit_multi_snoops            0                       # Number of snoops hitting in the snoop filter with multiple (>1) holders of the requested data.
system.tol2bus.pwrStateResidencyTicks::UNDEFINED  22002313000                       # Cumulative time (in ticks) in various power states
system.tol2bus.trans_dist::ReadResp             80908                       # Transaction distribution
system.tol2bus.trans_dist::WritebackDirty       126191                       # Transaction distribution
system.tol2bus.trans_dist::WritebackClean        25378                       # Transaction distribution
system.tol2bus.trans_dist::CleanEvict           10026                       # Transaction distribution
system.tol2bus.trans_dist::ReadExReq            45134                       # Transaction distribution
system.tol2bus.trans_dist::ReadExResp           45134                       # Transaction distribution
system.tol2bus.trans_dist::ReadCleanReq         25378                       # Transaction distribution
system.tol2bus.trans_dist::ReadSharedReq        55529                       # Transaction distribution
system.tol2bus.pkt_count_system.cpu.icache.mem_side::system.l2.cpu_side        76134                       # Packet count per connected master and slave (bytes)
system.tol2bus.pkt_count_system.cpu.dcache.mem_side::system.l2.cpu_side       301978                       # Packet count per connected master and slave (bytes)
system.tol2bus.pkt_count::total                378112                       # Packet count per connected master and slave (bytes)
system.tol2bus.pkt_size_system.cpu.icache.mem_side::system.l2.cpu_side      3248384                       # Cumulative packet size per connected master and slave (bytes)
system.tol2bus.pkt_size_system.cpu.dcache.mem_side::system.l2.cpu_side     12286464                       # Cumulative packet size per connected master and slave (bytes)
system.tol2bus.pkt_size::total               15534848                       # Cumulative packet size per connected master and slave (bytes)
system.tol2bus.snoops                           35566                       # Total snoops (count)
system.tol2bus.snoopTraffic                   2232256                       # Total snoop traffic (bytes)
system.tol2bus.snoop_fanout::samples           161607                       # Request fanout histogram
system.tol2bus.snoop_fanout::mean            0.016008                       # Request fanout histogram
system.tol2bus.snoop_fanout::stdev           0.125506                       # Request fanout histogram
system.tol2bus.snoop_fanout::underflows             0      0.00%      0.00% # Request fanout histogram
system.tol2bus.snoop_fanout::0                 159020     98.40%     98.40% # Request fanout histogram
system.tol2bus.snoop_fanout::1                   2587      1.60%    100.00% # Request fanout histogram
system.tol2bus.snoop_fanout::2                      0      0.00%    100.00% # Request fanout histogram
system.tol2bus.snoop_fanout::overflows              0      0.00%    100.00% # Request fanout histogram
system.tol2bus.snoop_fanout::min_value              0                       # Request fanout histogram
system.tol2bus.snoop_fanout::max_value              1                       # Request fanout histogram
system.tol2bus.snoop_fanout::total             161607                       # Request fanout histogram
system.tol2bus.reqLayer0.occupancy          242725000                       # Layer occupancy (ticks)
system.tol2bus.reqLayer0.utilization              1.1                       # Layer utilization (%)
system.tol2bus.respLayer0.occupancy          38482667                       # Layer occupancy (ticks)
system.tol2bus.respLayer0.utilization             0.2                       # Layer utilization (%)
system.tol2bus.respLayer1.occupancy         151023445                       # Layer occupancy (ticks)
system.tol2bus.respLayer1.utilization             0.7                       # Layer utilization (%)

---------- End Simulation Statistics   ----------
